version 2
run LinkDownAndUp-0-20190711-12:53:39-87114
attr configname LinkDownAndUp
attr datetime 20190711-12:53:39
attr experiment LinkDownAndUp
attr inifile omnetpp.ini
attr iterationvars ""
attr iterationvarsf ""
attr measurement ""
attr network BGPTestLoopback
attr processid 87114
attr repetition 0
attr replication #0
attr resultdir results
attr runnumber 0
attr seedset 0
param **.scenarioManager.script "xmldoc(\"scenario2.xml\")"
param **.ip.procDelay 1us
param **.eth[*].queue.typename "\"EtherQosQueue\""
param **.eth[*].queue.dataQueue.typename "\"DropTailQueue\""
param **.eth[*].queue.dataQueue.frameCapacity 100
param **.hasStatus true
param **.bgpConfig "xmldoc(\"config.xml\")"
param **.scenarioManager.script "xml(\"<empty/>\")"

vector 0 BGPTestLoopback.R1.eth[0].queue.pauseQueue queueLength:vector ETV
attr interpolationmode sample-hold
attr title "queue length, vector"
vector 1 BGPTestLoopback.R1.eth[0].queue.dataQueue queueLength:vector ETV
attr interpolationmode sample-hold
attr title "queue length, vector"
vector 2 BGPTestLoopback.R2.eth[0].queue.pauseQueue queueLength:vector ETV
attr interpolationmode sample-hold
attr title "queue length, vector"
vector 3 BGPTestLoopback.R2.eth[0].queue.dataQueue queueLength:vector ETV
attr interpolationmode sample-hold
attr title "queue length, vector"
vector 4 BGPTestLoopback.R2.eth[1].queue.pauseQueue queueLength:vector ETV
attr interpolationmode sample-hold
attr title "queue length, vector"
vector 5 BGPTestLoopback.R2.eth[1].queue.dataQueue queueLength:vector ETV
attr interpolationmode sample-hold
attr title "queue length, vector"
vector 6 BGPTestLoopback.R3.eth[0].queue.pauseQueue queueLength:vector ETV
attr interpolationmode sample-hold
attr title "queue length, vector"
vector 7 BGPTestLoopback.R3.eth[0].queue.dataQueue queueLength:vector ETV
attr interpolationmode sample-hold
attr title "queue length, vector"
vector 8 BGPTestLoopback.R3.eth[1].queue.pauseQueue queueLength:vector ETV
attr interpolationmode sample-hold
attr title "queue length, vector"
vector 9 BGPTestLoopback.R3.eth[1].queue.dataQueue queueLength:vector ETV
attr interpolationmode sample-hold
attr title "queue length, vector"
vector 10 BGPTestLoopback.R4.eth[0].queue.pauseQueue queueLength:vector ETV
attr interpolationmode sample-hold
attr title "queue length, vector"
vector 11 BGPTestLoopback.R4.eth[0].queue.dataQueue queueLength:vector ETV
attr interpolationmode sample-hold
attr title "queue length, vector"
vector 12 BGPTestLoopback.R3.ipv6.neighbourDiscovery startDad:vector ETV
attr title "DAD started, vector"
vector 13 BGPTestLoopback.R3.eth[0].encap encapPk:vector(packetBytes) ETV
attr interpolationmode none
attr source encapPk
attr title "packets encapsulated, vector(packetBytes)"
vector 14 BGPTestLoopback.R3.eth[1].encap encapPk:vector(packetBytes) ETV
attr interpolationmode none
attr source encapPk
attr title "packets encapsulated, vector(packetBytes)"
vector 15 BGPTestLoopback.R3.eth[0].queue.dataQueue packetReceived:vector(packetBytes) ETV
attr interpolationmode none
attr title "received packets, vector(packetBytes)"
vector 16 BGPTestLoopback.R3.eth[0].queue.dataQueue queueingTime:vector ETV
attr interpolationmode none
attr title "queueing time, vector"
vector 17 BGPTestLoopback.R3.eth[1].queue.dataQueue packetReceived:vector(packetBytes) ETV
attr interpolationmode none
attr title "received packets, vector(packetBytes)"
vector 18 BGPTestLoopback.R3.eth[1].queue.dataQueue queueingTime:vector ETV
attr interpolationmode none
attr title "queueing time, vector"
vector 19 BGPTestLoopback.R3.eth[0].mac packetReceivedFromUpper:vector(packetBytes) ETV
attr interpolationmode none
attr source packetReceivedFromUpper
attr title "packet bytes from higher layer, vector(packetBytes)"
vector 20 BGPTestLoopback.R3.eth[1].mac packetReceivedFromUpper:vector(packetBytes) ETV
attr interpolationmode none
attr source packetReceivedFromUpper
attr title "packet bytes from higher layer, vector(packetBytes)"
vector 21 BGPTestLoopback.R4.eth[0].mac rxPkOk:vector(packetBytes) ETV
attr interpolationmode none
attr source rxPkOk
attr title "packets received OK, vector(packetBytes)"
vector 22 BGPTestLoopback.R4.eth[0].mac passedUpPk:vector(packetBytes) ETV
attr interpolationmode none
attr source packetSentToUpper
attr title "packets passed to higher layer, vector(packetBytes)"
vector 23 BGPTestLoopback.R3.eth[0].mac txPk:vector(packetBytes) ETV
attr interpolationmode none
attr source packetSentToLower
attr title "packets transmitted, vector(packetBytes)"
vector 24 BGPTestLoopback.R2.eth[1].mac rxPkOk:vector(packetBytes) ETV
attr interpolationmode none
attr source rxPkOk
attr title "packets received OK, vector(packetBytes)"
vector 25 BGPTestLoopback.R2.eth[1].mac passedUpPk:vector(packetBytes) ETV
attr interpolationmode none
attr source packetSentToUpper
attr title "packets passed to higher layer, vector(packetBytes)"
vector 26 BGPTestLoopback.R3.eth[1].mac txPk:vector(packetBytes) ETV
attr interpolationmode none
attr source packetSentToLower
attr title "packets transmitted, vector(packetBytes)"
vector 27 BGPTestLoopback.R4.eth[0].encap decapPk:vector(packetBytes) ETV
attr interpolationmode none
attr source decapPk
attr title "packets decapsulated, vector(packetBytes)"
vector 28 BGPTestLoopback.R2.eth[1].encap decapPk:vector(packetBytes) ETV
attr interpolationmode none
attr source decapPk
attr title "packets decapsulated, vector(packetBytes)"
vector 29 BGPTestLoopback.R1.ipv6.neighbourDiscovery startDad:vector ETV
attr title "DAD started, vector"
vector 30 BGPTestLoopback.R1.eth[0].encap encapPk:vector(packetBytes) ETV
attr interpolationmode none
attr source encapPk
attr title "packets encapsulated, vector(packetBytes)"
vector 31 BGPTestLoopback.R1.eth[0].queue.dataQueue packetReceived:vector(packetBytes) ETV
attr interpolationmode none
attr title "received packets, vector(packetBytes)"
vector 32 BGPTestLoopback.R1.eth[0].queue.dataQueue queueingTime:vector ETV
attr interpolationmode none
attr title "queueing time, vector"
vector 33 BGPTestLoopback.R1.eth[0].mac packetReceivedFromUpper:vector(packetBytes) ETV
attr interpolationmode none
attr source packetReceivedFromUpper
attr title "packet bytes from higher layer, vector(packetBytes)"
vector 34 BGPTestLoopback.R2.eth[0].mac rxPkOk:vector(packetBytes) ETV
attr interpolationmode none
attr source rxPkOk
attr title "packets received OK, vector(packetBytes)"
vector 35 BGPTestLoopback.R2.eth[0].mac passedUpPk:vector(packetBytes) ETV
attr interpolationmode none
attr source packetSentToUpper
attr title "packets passed to higher layer, vector(packetBytes)"
vector 36 BGPTestLoopback.R1.eth[0].mac txPk:vector(packetBytes) ETV
attr interpolationmode none
attr source packetSentToLower
attr title "packets transmitted, vector(packetBytes)"
vector 37 BGPTestLoopback.R2.eth[0].encap decapPk:vector(packetBytes) ETV
attr interpolationmode none
attr source decapPk
attr title "packets decapsulated, vector(packetBytes)"
vector 38 BGPTestLoopback.R4.ipv6.neighbourDiscovery startDad:vector ETV
attr title "DAD started, vector"
vector 39 BGPTestLoopback.R4.eth[0].encap encapPk:vector(packetBytes) ETV
attr interpolationmode none
attr source encapPk
attr title "packets encapsulated, vector(packetBytes)"
0	0	0	0
1	0	0	0
1	28	0.115314512467	1
1	28	0.115314512467	0
2	0	0	0
3	0	0	0
4	0	0	0
5	0	0	0
6	0	0	0
7	0	0	0
7	8	0.081796888355	1
7	8	0.081796888355	0
8	0	0	0
9	0	0	0
9	9	0.081796888355	1
9	9	0.081796888355	0
10	0	0	0
11	0	0	0
12	1	0.081796888355	1
12	1	0.081796888355	1
13	4	0.081796888355	64
14	5	0.081796888355	64
15	8	0.081796888355	82
16	8	0.081796888355	0
17	9	0.081796888355	82
18	9	0.081796888355	0
19	12	0.081796888355	82
20	13	0.081796888355	82
21	14	0.081804088355	82
22	14	0.081804088355	82
23	15	0.081804088355	82
24	16	0.081804088355	82
25	16	0.081804088355	82
26	17	0.081804088355	82
27	18	0.081804088355	64
28	19	0.081804088355	64
29	24	0.115314512467	1
30	26	0.115314512467	64
31	28	0.115314512467	82
32	28	0.115314512467	0
33	30	0.115314512467	82
34	31	0.115321712467	82
35	31	0.115321712467	82
36	32	0.115321712467	82
37	33	0.115321712467	64
38	37	0.143299533497	1
39	39	0.143299533497	64
vector 40 BGPTestLoopback.R4.eth[0].queue.dataQueue packetReceived:vector(packetBytes) ETV
attr interpolationmode none
attr title "received packets, vector(packetBytes)"
vector 41 BGPTestLoopback.R4.eth[0].queue.dataQueue queueingTime:vector ETV
attr interpolationmode none
attr title "queueing time, vector"
vector 42 BGPTestLoopback.R4.eth[0].mac packetReceivedFromUpper:vector(packetBytes) ETV
attr interpolationmode none
attr source packetReceivedFromUpper
attr title "packet bytes from higher layer, vector(packetBytes)"
vector 43 BGPTestLoopback.R3.eth[0].mac rxPkOk:vector(packetBytes) ETV
attr interpolationmode none
attr source rxPkOk
attr title "packets received OK, vector(packetBytes)"
vector 44 BGPTestLoopback.R3.eth[0].mac passedUpPk:vector(packetBytes) ETV
attr interpolationmode none
attr source packetSentToUpper
attr title "packets passed to higher layer, vector(packetBytes)"
vector 45 BGPTestLoopback.R4.eth[0].mac txPk:vector(packetBytes) ETV
attr interpolationmode none
attr source packetSentToLower
attr title "packets transmitted, vector(packetBytes)"
vector 46 BGPTestLoopback.R3.eth[0].encap decapPk:vector(packetBytes) ETV
attr interpolationmode none
attr source decapPk
attr title "packets decapsulated, vector(packetBytes)"
vector 47 BGPTestLoopback.R2.ipv6.neighbourDiscovery startDad:vector ETV
attr title "DAD started, vector"
vector 48 BGPTestLoopback.R2.eth[0].encap encapPk:vector(packetBytes) ETV
attr interpolationmode none
attr source encapPk
attr title "packets encapsulated, vector(packetBytes)"
vector 49 BGPTestLoopback.R2.eth[1].encap encapPk:vector(packetBytes) ETV
attr interpolationmode none
attr source encapPk
attr title "packets encapsulated, vector(packetBytes)"
vector 50 BGPTestLoopback.R2.eth[0].queue.dataQueue packetReceived:vector(packetBytes) ETV
attr interpolationmode none
attr title "received packets, vector(packetBytes)"
vector 51 BGPTestLoopback.R2.eth[0].queue.dataQueue queueingTime:vector ETV
attr interpolationmode none
attr title "queueing time, vector"
vector 52 BGPTestLoopback.R2.eth[1].queue.dataQueue packetReceived:vector(packetBytes) ETV
attr interpolationmode none
attr title "received packets, vector(packetBytes)"
vector 53 BGPTestLoopback.R2.eth[1].queue.dataQueue queueingTime:vector ETV
attr interpolationmode none
attr title "queueing time, vector"
vector 54 BGPTestLoopback.R2.eth[0].mac packetReceivedFromUpper:vector(packetBytes) ETV
attr interpolationmode none
attr source packetReceivedFromUpper
attr title "packet bytes from higher layer, vector(packetBytes)"
vector 55 BGPTestLoopback.R2.eth[1].mac packetReceivedFromUpper:vector(packetBytes) ETV
attr interpolationmode none
attr source packetReceivedFromUpper
attr title "packet bytes from higher layer, vector(packetBytes)"
vector 56 BGPTestLoopback.R1.eth[0].mac rxPkOk:vector(packetBytes) ETV
attr interpolationmode none
attr source rxPkOk
attr title "packets received OK, vector(packetBytes)"
vector 57 BGPTestLoopback.R1.eth[0].mac passedUpPk:vector(packetBytes) ETV
attr interpolationmode none
attr source packetSentToUpper
attr title "packets passed to higher layer, vector(packetBytes)"
vector 58 BGPTestLoopback.R2.eth[0].mac txPk:vector(packetBytes) ETV
attr interpolationmode none
attr source packetSentToLower
attr title "packets transmitted, vector(packetBytes)"
vector 59 BGPTestLoopback.R3.eth[1].mac rxPkOk:vector(packetBytes) ETV
attr interpolationmode none
attr source rxPkOk
attr title "packets received OK, vector(packetBytes)"
vector 60 BGPTestLoopback.R3.eth[1].mac passedUpPk:vector(packetBytes) ETV
attr interpolationmode none
attr source packetSentToUpper
attr title "packets passed to higher layer, vector(packetBytes)"
vector 61 BGPTestLoopback.R2.eth[1].mac txPk:vector(packetBytes) ETV
attr interpolationmode none
attr source packetSentToLower
attr title "packets transmitted, vector(packetBytes)"
vector 62 BGPTestLoopback.R1.eth[0].encap decapPk:vector(packetBytes) ETV
attr interpolationmode none
attr source decapPk
attr title "packets decapsulated, vector(packetBytes)"
vector 63 BGPTestLoopback.R3.eth[1].encap decapPk:vector(packetBytes) ETV
attr interpolationmode none
attr source decapPk
attr title "packets decapsulated, vector(packetBytes)"
vector 64 BGPTestLoopback.R1.tcp tcpRcvQueueBytes ETV
vector 65 BGPTestLoopback.R1.tcp "advertised window" ETV
vector 66 BGPTestLoopback.R1.tcp "receive window" ETV
vector 67 BGPTestLoopback.R1.tcp "sent ack" ETV
vector 68 BGPTestLoopback.R1.ipv4.arp arpRequestSent:vector(packetBytes) ETV
attr source arpRequestSent
attr title "ARP request sent, vector(packetBytes)"
vector 69 BGPTestLoopback.R2.ipv4.arp arpReplySent:vector(packetBytes) ETV
attr source arpReplySent
attr title "ARP replies sent, vector(packetBytes)"
vector 70 BGPTestLoopback.R1.tcp "rcvd seq" ETV
vector 71 BGPTestLoopback.R1.tcp "rcvd ack" ETV
66	80	16	7504
65	80	16	7504
67	80	16	0
70	128	16.00002704	0
71	128	16.00002704	4000001
64	80	16	0
vector 72 BGPTestLoopback.R1.tcp tcpRcvQueueBytes ETV
vector 73 BGPTestLoopback.R1.tcp "advertised window" ETV
vector 74 BGPTestLoopback.R1.tcp "receive window" ETV
vector 75 BGPTestLoopback.R1.tcp "sent ack" ETV
vector 76 BGPTestLoopback.R1.tcp "rcvd seq" ETV
vector 77 BGPTestLoopback.R1.tcp "rcvd ack" ETV
74	133	16.5	7504
73	133	16.5	7504
75	133	16.5	0
76	182	16.50002976	0
77	182	16.50002976	4125001
72	133	16.5	0
vector 78 BGPTestLoopback.R2.tcp tcpRcvQueueBytes ETV
vector 79 BGPTestLoopback.R2.tcp "advertised window" ETV
vector 80 BGPTestLoopback.R2.tcp "receive window" ETV
vector 81 BGPTestLoopback.R2.tcp "sent ack" ETV
vector 82 BGPTestLoopback.R1.tcp "rcvd seq" ETV
vector 83 BGPTestLoopback.R1.tcp "rcvd ack" ETV
vector 84 BGPTestLoopback.R1.tcp "advertised window" ETV
vector 85 BGPTestLoopback.R1.tcp "send window" ETV
vector 86 BGPTestLoopback.R1.tcp tcpRcvQueueBytes ETV
vector 87 BGPTestLoopback.R1.tcp "receive window" ETV
vector 88 BGPTestLoopback.R1.tcp "sent ack" ETV
vector 89 BGPTestLoopback.R2.tcp "rcvd seq" ETV
vector 90 BGPTestLoopback.R2.tcp "rcvd ack" ETV
vector 91 BGPTestLoopback.R2.tcp "send window" ETV
vector 92 BGPTestLoopback.R2.tcp "sent seq" ETV
vector 93 BGPTestLoopback.R2.tcp "unacked bytes" ETV
vector 94 BGPTestLoopback.R1.tcp "unacked bytes" ETV
vector 95 BGPTestLoopback.R1.tcp "sent seq" ETV
vector 96 BGPTestLoopback.R1.tcp "rcvd dupAcks" ETV
vector 97 BGPTestLoopback.R2.tcp "rcvd dupAcks" ETV
vector 98 BGPTestLoopback.R2.tcp "measured RTT" ETV
vector 99 BGPTestLoopback.R2.tcp "smoothed RTT" ETV
vector 100 BGPTestLoopback.R2.tcp RTTVAR ETV
vector 101 BGPTestLoopback.R2.tcp RTO ETV
vector 102 BGPTestLoopback.R2.tcp cwnd ETV
vector 103 BGPTestLoopback.R1.tcp "measured RTT" ETV
vector 104 BGPTestLoopback.R1.tcp "smoothed RTT" ETV
vector 105 BGPTestLoopback.R1.tcp RTTVAR ETV
vector 106 BGPTestLoopback.R1.tcp RTO ETV
vector 107 BGPTestLoopback.R1.tcp cwnd ETV
vector 108 BGPTestLoopback.R2.tcp tcpRcvQueueBytes ETV
vector 109 BGPTestLoopback.R2.tcp "advertised window" ETV
vector 110 BGPTestLoopback.R2.tcp "receive window" ETV
vector 111 BGPTestLoopback.R2.tcp "sent ack" ETV
vector 112 BGPTestLoopback.R1.tcp "rcvd seq" ETV
vector 113 BGPTestLoopback.R1.tcp "rcvd ack" ETV
vector 114 BGPTestLoopback.R1.tcp "advertised window" ETV
vector 115 BGPTestLoopback.R1.tcp "send window" ETV
vector 116 BGPTestLoopback.R1.tcp tcpRcvQueueBytes ETV
vector 117 BGPTestLoopback.R1.tcp "receive window" ETV
vector 118 BGPTestLoopback.R1.tcp "sent ack" ETV
vector 119 BGPTestLoopback.R2.tcp "rcvd seq" ETV
vector 120 BGPTestLoopback.R2.tcp "rcvd ack" ETV
vector 121 BGPTestLoopback.R2.tcp "send window" ETV
vector 122 BGPTestLoopback.R2.tcp "sent seq" ETV
vector 123 BGPTestLoopback.R2.tcp "unacked bytes" ETV
vector 124 BGPTestLoopback.R1.tcp "unacked bytes" ETV
vector 125 BGPTestLoopback.R1.tcp "sent seq" ETV
vector 126 BGPTestLoopback.R2.tcp "rcvd dupAcks" ETV
vector 127 BGPTestLoopback.R1.tcp "rcvd dupAcks" ETV
vector 128 BGPTestLoopback.R2.tcp "measured RTT" ETV
vector 129 BGPTestLoopback.R2.tcp "smoothed RTT" ETV
vector 130 BGPTestLoopback.R2.tcp RTTVAR ETV
vector 131 BGPTestLoopback.R2.tcp RTO ETV
vector 132 BGPTestLoopback.R2.tcp cwnd ETV
vector 133 BGPTestLoopback.R1.tcp "measured RTT" ETV
vector 134 BGPTestLoopback.R1.tcp "smoothed RTT" ETV
vector 135 BGPTestLoopback.R1.tcp RTTVAR ETV
vector 136 BGPTestLoopback.R1.tcp RTO ETV
vector 137 BGPTestLoopback.R1.tcp cwnd ETV
vector 138 BGPTestLoopback.R3.tcp tcpRcvQueueBytes ETV
vector 139 BGPTestLoopback.R3.tcp "advertised window" ETV
vector 140 BGPTestLoopback.R3.tcp "receive window" ETV
vector 141 BGPTestLoopback.R3.tcp "sent ack" ETV
vector 142 BGPTestLoopback.R3.ipv4.arp arpRequestSent:vector(packetBytes) ETV
attr source arpRequestSent
attr title "ARP request sent, vector(packetBytes)"
vector 143 BGPTestLoopback.R4.ipv4.arp arpReplySent:vector(packetBytes) ETV
attr source arpReplySent
attr title "ARP replies sent, vector(packetBytes)"
vector 144 BGPTestLoopback.R3.tcp "rcvd seq" ETV
vector 145 BGPTestLoopback.R3.tcp "rcvd ack" ETV
140	622	18	7504
139	622	18	7504
141	622	18	0
144	670	18.00002704	0
145	670	18.00002704	4500001
138	622	18	0
vector 146 BGPTestLoopback.R3.tcp tcpRcvQueueBytes ETV
vector 147 BGPTestLoopback.R3.tcp "advertised window" ETV
vector 148 BGPTestLoopback.R3.tcp "receive window" ETV
vector 149 BGPTestLoopback.R3.tcp "sent ack" ETV
1	85	16.000001	1
1	85	16.000001	0
1	104	16.00001252	1
1	104	16.00001252	0
1	139	16.5	1
1	139	16.5	0
1	162	16.50001568	1
1	162	16.50001568	0
1	207	17.00000876	1
1	207	17.00000876	0
1	250	17.00002428	1
1	250	17.00002428	0
1	271	17.00003348	1
1	271	17.00003348	0
1	310	17.00004228	1
1	310	17.00004228	0
1	331	17.00005004	1
1	331	17.00005004	0
1	371	17.00005884	1
1	371	17.00005884	0
1	401	17.00006956	1
1	401	17.00006956	0
1	435	17.5000072	1
1	435	17.5000072	0
1	471	17.50002128	1
1	471	17.50002128	0
1	499	17.50003208	1
1	499	17.50003208	0
1	523	17.50003992	1
1	523	17.50003992	0
1	552	17.50004928	1
1	552	17.50004928	0
1	576	17.50005712	1
1	576	17.50005712	0
1	602	17.50006864	1
1	602	17.50006864	0
3	56	0.267531900527	1
3	56	0.267531900527	0
3	94	16.00000676	1
3	94	16.00000676	0
3	119	16.00002028	1
3	119	16.00002028	0
3	150	16.50000784	1
3	150	16.50000784	0
3	174	16.50002288	1
3	174	16.50002288	0
3	193	17.000001	1
3	193	17.000001	0
3	225	17.00001652	1
3	225	17.00001652	0
3	231	17.00001752	1
3	236	17.00002324	0
3	282	17.00003452	1
3	282	17.00003452	0
3	301	17.00004124	1
3	301	17.00004124	0
3	343	17.00005108	1
3	343	17.00005108	0
3	362	17.0000578	1
3	362	17.0000578	0
3	390	17.00006836	1
3	391	17.00006852	0
3	424	17.5	1
3	424	17.5	0
3	451	17.5000144	1
3	451	17.5000144	0
3	456	17.5000144	1
3	474	17.50002224	0
3	487	17.50003112	1
3	502	17.50003304	0
3	513	17.50003896	1
3	526	17.50004088	0
3	540	17.50004832	1
3	555	17.50005024	0
3	566	17.50005616	1
3	579	17.50005808	0
3	591	17.50006584	1
3	605	17.5000696	0
5	57	0.267531900527	1
5	57	0.267531900527	0
7	627	18.000001	1
7	627	18.000001	0
7	646	18.00001252	1
7	646	18.00001252	0
7	681	18.5	1
7	681	18.5	0
11	41	0.143299533497	1
11	41	0.143299533497	0
11	636	18.00000676	1
11	636	18.00000676	0
11	661	18.00002028	1
11	661	18.00002028	0
13	625	18.000001	28
13	644	18.00001252	44
13	679	18.5	72
15	627	18.000001	64
15	646	18.00001252	64
15	681	18.5	90
16	627	18.000001	0
16	646	18.00001252	0
16	681	18.5	0
19	629	18.000001	64
19	648	18.00001252	64
19	683	18.5	90
21	630	18.00000676	64
21	650	18.00001828	64
21	684	18.50000784	90
22	630	18.00000676	64
22	650	18.00001828	64
22	684	18.50000784	90
23	631	18.00000676	64
23	651	18.00001828	64
23	685	18.50000784	90
27	632	18.00000676	46
27	652	18.00001828	46
27	686	18.50000784	72
30	83	16.000001	28
30	102	16.00001252	44
30	137	16.5	72
30	160	16.50001568	64
30	205	17.00000876	44
30	248	17.00002428	77
30	269	17.00003348	40
30	308	17.00004228	59
30	329	17.00005004	40
30	369	17.00005884	68
30	399	17.00006956	40
30	433	17.5000072	64
30	469	17.50002128	97
30	497	17.50003208	60
30	521	17.50003992	79
30	550	17.50004928	60
30	574	17.50005712	83
30	600	17.50006864	60
31	85	16.000001	64
31	104	16.00001252	64
31	139	16.5	90
31	162	16.50001568	82
31	207	17.00000876	64
31	250	17.00002428	95
31	271	17.00003348	64
31	310	17.00004228	77
31	331	17.00005004	64
31	371	17.00005884	86
31	401	17.00006956	64
31	435	17.5000072	82
31	471	17.50002128	115
31	499	17.50003208	78
31	523	17.50003992	97
31	552	17.50004928	78
31	576	17.50005712	101
31	602	17.50006864	78
32	85	16.000001	0
32	104	16.00001252	0
32	139	16.5	0
32	162	16.50001568	0
32	207	17.00000876	0
32	250	17.00002428	0
32	271	17.00003348	0
32	310	17.00004228	0
32	331	17.00005004	0
32	371	17.00005884	0
32	401	17.00006956	0
32	435	17.5000072	0
32	471	17.50002128	0
32	499	17.50003208	0
32	523	17.50003992	0
32	552	17.50004928	0
32	576	17.50005712	0
32	602	17.50006864	0
33	87	16.000001	64
33	106	16.00001252	64
33	141	16.5	90
33	164	16.50001568	82
33	209	17.00000876	64
33	252	17.00002428	95
33	273	17.00003348	64
33	312	17.00004228	77
33	333	17.00005004	64
33	373	17.00005884	86
33	403	17.00006956	64
33	437	17.5000072	82
33	473	17.50002128	115
33	501	17.50003208	78
33	525	17.50003992	97
33	554	17.50004928	78
33	578	17.50005712	101
33	604	17.50006864	78
34	88	16.00000676	64
34	108	16.00001828	64
34	142	16.50000784	90
34	166	16.50002288	82
34	210	17.00001452	64
34	263	17.00003252	95
34	285	17.00003924	64
34	323	17.00004908	77
34	346	17.0000558	64
34	374	17.00006636	86
34	411	17.00007532	64
34	439	17.5000144	82
34	477	17.50003112	115
34	505	17.50003896	78
34	529	17.50004832	97
34	558	17.50005616	78
34	582	17.50006584	101
34	608	17.50007552	78
35	88	16.00000676	64
35	108	16.00001828	64
35	142	16.50000784	90
35	166	16.50002288	82
35	210	17.00001452	64
35	263	17.00003252	95
35	285	17.00003924	64
35	323	17.00004908	77
35	346	17.0000558	64
35	374	17.00006636	86
35	411	17.00007532	64
35	439	17.5000144	82
35	477	17.50003112	115
35	505	17.50003896	78
35	529	17.50004832	97
35	558	17.50005616	78
35	582	17.50006584	101
35	608	17.50007552	78
36	89	16.00000676	64
36	109	16.00001828	64
36	143	16.50000784	90
36	167	16.50002288	82
36	211	17.00001452	64
36	264	17.00003252	95
36	286	17.00003924	64
36	324	17.00004908	77
36	347	17.0000558	64
36	375	17.00006636	86
36	412	17.00007532	64
36	440	17.5000144	82
36	478	17.50003112	115
36	506	17.50003896	78
36	530	17.50004832	97
36	559	17.50005616	78
36	583	17.50006584	101
36	609	17.50007552	78
37	90	16.00000676	46
37	110	16.00001828	46
37	144	16.50000784	72
37	168	16.50002288	64
37	212	17.00001452	46
37	265	17.00003252	77
37	287	17.00003924	46
37	325	17.00004908	59
37	348	17.0000558	46
37	376	17.00006636	68
37	413	17.00007532	46
37	441	17.5000144	64
37	479	17.50003112	97
37	507	17.50003896	60
37	531	17.50004832	79
37	560	17.50005616	60
37	584	17.50006584	83
37	610	17.50007552	60
39	634	18.00000676	28
39	659	18.00002028	40
40	41	0.143299533497	82
40	636	18.00000676	64
40	661	18.00002028	64
41	41	0.143299533497	0
41	636	18.00000676	0
41	661	18.00002028	0
42	43	0.143299533497	82
42	638	18.00000676	64
42	663	18.00002028	64
43	44	0.143306733497	82
43	640	18.00001252	64
43	664	18.00002604	64
44	44	0.143306733497	82
44	640	18.00001252	64
44	664	18.00002604	64
45	45	0.143306733497	82
45	641	18.00001252	64
45	665	18.00002604	64
46	46	0.143306733497	64
46	642	18.00001252	46
46	666	18.00002604	46
47	49	0.267531900527	1
47	49	0.267531900527	1
48	52	0.267531900527	64
48	92	16.00000676	28
48	117	16.00002028	40
48	148	16.50000784	72
48	172	16.50002288	60
48	191	17.000001	44
48	223	17.00001652	40
48	229	17.00001752	77
48	280	17.00003452	40
48	299	17.00004124	59
48	341	17.00005108	40
48	360	17.0000578	96
48	388	17.00006836	40
48	422	17.5	64
48	446	17.5000144	60
48	452	17.5000144	97
48	485	17.50003112	60
48	511	17.50003896	79
48	538	17.50004832	60
48	564	17.50005616	106
48	589	17.50006584	60
49	53	0.267531900527	64
50	56	0.267531900527	82
50	94	16.00000676	64
50	119	16.00002028	64
50	150	16.50000784	90
50	174	16.50002288	78
50	193	17.000001	64
50	225	17.00001652	64
50	231	17.00001752	95
50	282	17.00003452	64
50	301	17.00004124	77
50	343	17.00005108	64
50	362	17.0000578	114
50	390	17.00006836	64
50	424	17.5	82
50	451	17.5000144	78
50	456	17.5000144	115
50	487	17.50003112	78
50	513	17.50003896	97
50	540	17.50004832	78
50	566	17.50005616	124
50	591	17.50006584	78
51	56	0.267531900527	0
51	94	16.00000676	0
51	119	16.00002028	0
51	150	16.50000784	0
51	174	16.50002288	0
51	193	17.000001	0
51	225	17.00001652	0
51	236	17.00002324	5.72e-06
51	282	17.00003452	0
51	301	17.00004124	0
51	343	17.00005108	0
51	362	17.0000578	0
51	391	17.00006852	1.6e-07
51	424	17.5	0
51	451	17.5000144	0
51	474	17.50002224	7.84e-06
51	502	17.50003304	1.92e-06
51	526	17.50004088	1.92e-06
51	555	17.50005024	1.92e-06
51	579	17.50005808	1.92e-06
51	605	17.5000696	3.76e-06
52	57	0.267531900527	82
53	57	0.267531900527	0
54	60	0.267531900527	82
54	96	16.00000676	64
54	121	16.00002028	64
54	152	16.50000784	90
54	176	16.50002288	78
54	195	17.000001	64
54	227	17.00001652	64
54	238	17.00002324	95
54	284	17.00003452	64
54	303	17.00004124	77
54	345	17.00005108	64
54	364	17.0000578	114
54	393	17.00006852	64
54	426	17.5	82
54	455	17.5000144	78
54	476	17.50002224	115
54	504	17.50003304	78
54	528	17.50004088	97
54	557	17.50005024	78
54	581	17.50005808	124
54	607	17.5000696	78
55	61	0.267531900527	82
56	62	0.267539100527	82
56	98	16.00001252	64
56	122	16.00002604	64
56	154	16.50001568	90
56	178	16.50002976	78
56	196	17.00000676	64
56	232	17.00002228	64
56	253	17.00003148	95
56	293	17.00004028	64
56	313	17.00004804	77
56	354	17.00005684	64
56	383	17.00006756	114
56	404	17.00007428	64
56	427	17.5000072	82
56	458	17.50002128	78
56	488	17.50003208	115
56	514	17.50003992	78
56	541	17.50004928	97
56	567	17.50005712	78
56	593	17.50006864	124
56	613	17.50007648	78
57	62	0.267539100527	82
57	98	16.00001252	64
57	122	16.00002604	64
57	154	16.50001568	90
57	178	16.50002976	78
57	196	17.00000676	64
57	232	17.00002228	64
57	253	17.00003148	95
57	293	17.00004028	64
57	313	17.00004804	77
57	354	17.00005684	64
57	383	17.00006756	114
57	404	17.00007428	64
57	427	17.5000072	82
57	458	17.50002128	78
57	488	17.50003208	115
57	514	17.50003992	78
57	541	17.50004928	97
57	567	17.50005712	78
57	593	17.50006864	124
57	613	17.50007648	78
58	63	0.267539100527	82
58	99	16.00001252	64
58	123	16.00002604	64
58	155	16.50001568	90
58	179	16.50002976	78
58	197	17.00000676	64
58	233	17.00002228	64
58	254	17.00003148	95
58	294	17.00004028	64
58	314	17.00004804	77
58	355	17.00005684	64
58	384	17.00006756	114
58	405	17.00007428	64
58	428	17.5000072	82
58	459	17.50002128	78
58	489	17.50003208	115
58	515	17.50003992	78
58	542	17.50004928	97
58	568	17.50005712	78
58	594	17.50006864	124
58	614	17.50007648	78
59	64	0.267539100527	82
60	64	0.267539100527	82
61	65	0.267539100527	82
62	66	0.267539100527	64
62	100	16.00001252	46
62	124	16.00002604	46
62	156	16.50001568	72
62	180	16.50002976	60
62	198	17.00000676	46
62	234	17.00002228	46
62	255	17.00003148	77
62	295	17.00004028	46
62	315	17.00004804	59
62	356	17.00005684	46
62	385	17.00006756	96
62	406	17.00007428	46
62	429	17.5000072	64
62	460	17.50002128	60
62	491	17.50003208	97
62	517	17.50003992	60
62	544	17.50004928	79
62	570	17.50005712	60
62	595	17.50006864	106
62	616	17.50007648	60
63	67	0.267539100527	64
68	82	16.000001	28
69	91	16.00000676	28
78	188	17	0
78	216	17.00001552	0
78	219	17.00001552	0
78	275	17.00003352	0
78	275	17.00003352	0
78	291	17.00004024	0
78	335	17.00005008	0
78	335	17.00005008	0
78	352	17.0000568	0
78	380	17.00006736	0
78	380	17.00006736	0
79	188	17	7504
79	216	17.00001552	4257506
79	216	17.00001552	4257506
79	219	17.00001552	4257506
79	275	17.00003352	4257543
79	291	17.00004024	4257543
79	335	17.00005008	4257562
79	352	17.0000568	4257562
79	380	17.00006736	4257590
80	188	17	7504
80	216	17.00001552	7504
80	219	17.00001552	7504
80	275	17.00003352	7504
80	291	17.00004024	7504
80	335	17.00005008	7504
80	352	17.0000568	7504
80	380	17.00006736	7504
81	188	17	0
81	216	17.00001552	4250002
81	219	17.00001552	4250002
81	275	17.00003352	4250039
81	291	17.00004024	4250039
81	335	17.00005008	4250058
81	352	17.0000568	4250058
81	380	17.00006736	4250086
82	202	17.00000776	4250000
82	240	17.00002328	4250001
82	259	17.00003248	4250001
82	305	17.00004128	4250038
82	319	17.00004904	4250038
82	366	17.00005784	4250057
82	395	17.00006856	4250057
82	410	17.00007528	4250113
83	202	17.00000776	0
83	240	17.00002328	4250002
83	259	17.00003248	4250002
83	305	17.00004128	4250039
83	319	17.00004904	4250039
83	366	17.00005784	4250058
83	395	17.00006856	4250058
83	410	17.00007528	4250086
84	202	17.00000776	4257505
84	202	17.00000776	4257505
84	244	17.00002328	4257505
84	259	17.00003248	4257542
84	305	17.00004128	4257542
84	319	17.00004904	4257561
84	366	17.00005784	4257561
84	395	17.00006856	4257617
85	202	17.00000776	7504
85	240	17.00002328	7504
85	305	17.00004128	7504
85	366	17.00005784	7504
85	410	17.00007528	7504
86	202	17.00000776	0
86	244	17.00002328	0
86	259	17.00003248	0
86	259	17.00003248	0
86	305	17.00004128	0
86	319	17.00004904	0
86	319	17.00004904	0
86	366	17.00005784	0
86	395	17.00006856	0
86	395	17.00006856	0
87	202	17.00000776	7504
87	244	17.00002328	7504
87	259	17.00003248	7504
87	305	17.00004128	7504
87	319	17.00004904	7504
87	366	17.00005784	7504
87	395	17.00006856	7504
88	202	17.00000776	4250001
88	244	17.00002328	4250001
88	259	17.00003248	4250038
88	305	17.00004128	4250038
88	319	17.00004904	4250057
88	366	17.00005784	4250057
88	395	17.00006856	4250113
89	216	17.00001552	4250001
89	275	17.00003352	4250002
89	291	17.00004024	4250039
89	335	17.00005008	4250039
89	352	17.0000568	4250058
89	380	17.00006736	4250058
89	417	17.00007632	4250086
90	216	17.00001552	4250001
90	275	17.00003352	4250001
90	291	17.00004024	4250038
90	335	17.00005008	4250038
90	352	17.0000568	4250057
90	380	17.00006736	4250057
90	417	17.00007632	4250113
91	216	17.00001552	7504
91	291	17.00004024	7504
91	352	17.0000568	7504
91	417	17.00007632	7504
92	219	17.00001552	4250001
92	352	17.0000568	4250057
93	219	17.00001552	37
93	291	17.00004024	0
93	291	17.00004024	19
93	352	17.0000568	0
93	352	17.0000568	56
93	417	17.00007632	0
94	240	17.00002328	0
94	244	17.00002328	37
94	305	17.00004128	0
94	305	17.00004128	19
94	366	17.00005784	0
94	366	17.00005784	28
94	410	17.00007528	0
95	244	17.00002328	4250002
95	366	17.00005784	4250058
96	259	17.00003248	0
96	305	17.00004128	0
96	319	17.00004904	0
96	366	17.00005784	0
96	395	17.00006856	0
96	410	17.00007528	0
97	275	17.00003352	0
97	291	17.00004024	0
97	335	17.00005008	0
97	352	17.0000568	0
97	380	17.00006736	0
97	417	17.00007632	0
98	291	17.00004024	2.472e-05
98	352	17.0000568	1.656e-05
98	417	17.00007632	1.952e-05
99	291	17.00004024	3.09e-06
99	352	17.0000568	4.77375e-06
99	417	17.00007632	6.617031e-06
100	291	17.00004024	0.65625309
100	352	17.0000568	0.5742231375
100	417	17.00007632	0.502447088594
101	291	17.00004024	2.62501545
101	352	17.0000568	2.29689732375
101	417	17.00007632	2.009794971407
102	291	17.00004024	1072
102	352	17.0000568	1608
102	417	17.00007632	2144
103	305	17.00004128	1.8e-05
103	366	17.00005784	1.656e-05
103	410	17.00007528	1.744e-05
104	305	17.00004128	2.25e-06
104	366	17.00005784	4.03875e-06
104	410	17.00007528	5.713906e-06
105	305	17.00004128	0.65625225
105	366	17.00005784	0.5742225075
105	410	17.00007528	0.502446369219
106	305	17.00004128	2.62501125
106	366	17.00005784	2.29689406875
106	410	17.00007528	2.009791190782
107	305	17.00004128	1072
107	366	17.00005784	1608
107	410	17.00007528	2144
108	420	17.5	0
108	443	17.5000144	0
108	447	17.5000144	0
108	481	17.50003112	0
108	481	17.50003112	0
108	509	17.50003896	0
108	533	17.50004832	0
108	533	17.50004832	0
108	562	17.50005616	0
108	586	17.50006584	0
108	586	17.50006584	0
109	420	17.5	7504
109	443	17.5000144	4382506
109	443	17.5000144	4382506
109	447	17.5000144	4382506
109	481	17.50003112	4382543
109	509	17.50003896	4382543
109	533	17.50004832	4382562
109	562	17.50005616	4382562
109	586	17.50006584	4382585
110	420	17.5	7504
110	443	17.5000144	7504
110	447	17.5000144	7504
110	481	17.50003112	7504
110	509	17.50003896	7504
110	533	17.50004832	7504
110	562	17.50005616	7504
110	586	17.50006584	7504
111	420	17.5	0
111	443	17.5000144	4375002
111	447	17.5000144	4375002
111	481	17.50003112	4375039
111	509	17.50003896	4375039
111	533	17.50004832	4375058
111	562	17.50005616	4375058
111	586	17.50006584	4375081
112	431	17.5000072	4375000
112	462	17.50002128	4375001
112	493	17.50003208	4375001
112	519	17.50003992	4375038
112	546	17.50004928	4375038
112	572	17.50005712	4375057
112	597	17.50006864	4375057
112	618	17.50007648	4375103
113	431	17.5000072	0
113	462	17.50002128	4375002
113	493	17.50003208	4375002
113	519	17.50003992	4375039
113	546	17.50004928	4375039
113	572	17.50005712	4375058
113	597	17.50006864	4375058
113	618	17.50007648	4375081
114	431	17.5000072	4382505
114	431	17.5000072	4382505
114	466	17.50002128	4382505
114	493	17.50003208	4382542
114	519	17.50003992	4382542
114	546	17.50004928	4382561
114	572	17.50005712	4382561
114	597	17.50006864	4382607
115	431	17.5000072	7504
115	462	17.50002128	7504
115	519	17.50003992	7504
115	572	17.50005712	7504
115	618	17.50007648	7504
116	431	17.5000072	0
116	466	17.50002128	0
116	493	17.50003208	0
116	493	17.50003208	0
116	519	17.50003992	0
116	546	17.50004928	0
116	546	17.50004928	0
116	572	17.50005712	0
116	597	17.50006864	0
116	597	17.50006864	0
117	431	17.5000072	7504
117	466	17.50002128	7504
117	493	17.50003208	7504
117	519	17.50003992	7504
117	546	17.50004928	7504
117	572	17.50005712	7504
117	597	17.50006864	7504
118	431	17.5000072	4375001
118	466	17.50002128	4375001
118	493	17.50003208	4375038
118	519	17.50003992	4375038
118	546	17.50004928	4375057
118	572	17.50005712	4375057
118	597	17.50006864	4375103
119	443	17.5000144	4375001
119	481	17.50003112	4375002
119	509	17.50003896	4375039
119	533	17.50004832	4375039
119	562	17.50005616	4375058
119	586	17.50006584	4375058
119	612	17.50007552	4375081
120	443	17.5000144	4375001
120	481	17.50003112	4375001
120	509	17.50003896	4375038
120	533	17.50004832	4375038
120	562	17.50005616	4375057
120	586	17.50006584	4375057
120	612	17.50007552	4375103
121	443	17.5000144	7504
121	509	17.50003896	7504
121	562	17.50005616	7504
121	612	17.50007552	7504
122	447	17.5000144	4375001
122	562	17.50005616	4375057
123	447	17.5000144	37
123	509	17.50003896	0
123	509	17.50003896	19
123	562	17.50005616	0
123	562	17.50005616	46
123	612	17.50007552	0
124	462	17.50002128	0
124	466	17.50002128	37
124	519	17.50003992	0
124	519	17.50003992	19
124	572	17.50005712	0
124	572	17.50005712	23
124	618	17.50007648	0
125	466	17.50002128	4375002
125	572	17.50005712	4375058
126	481	17.50003112	0
126	509	17.50003896	0
126	533	17.50004832	0
126	562	17.50005616	0
126	586	17.50006584	0
126	612	17.50007552	0
127	493	17.50003208	0
127	519	17.50003992	0
127	546	17.50004928	0
127	572	17.50005712	0
127	597	17.50006864	0
127	618	17.50007648	0
128	509	17.50003896	2.456e-05
128	562	17.50005616	1.72e-05
128	612	17.50007552	1.936e-05
129	509	17.50003896	3.07e-06
129	562	17.50005616	4.83625e-06
129	612	17.50007552	6.651719e-06
130	509	17.50003896	0.65625307
130	562	17.50005616	0.5742232025
130	612	17.50007552	0.502447117656
131	509	17.50003896	2.62501535
131	562	17.50005616	2.29689764625
131	612	17.50007552	2.009795122343
132	509	17.50003896	1072
132	562	17.50005616	1608
132	612	17.50007552	2144
133	519	17.50003992	1.864e-05
133	572	17.50005712	1.72e-05
133	618	17.50007648	1.936e-05
134	519	17.50003992	2.33e-06
134	572	17.50005712	4.18875e-06
134	618	17.50007648	6.085156e-06
135	519	17.50003992	0.65625233
135	572	17.50005712	0.5742226475
135	618	17.50007648	0.502446712969
136	519	17.50003992	2.62501165
136	572	17.50005712	2.29689477875
136	618	17.50007648	2.009792937032
137	519	17.50003992	1072
137	572	17.50005712	1608
137	618	17.50007648	2144
142	624	18.000001	28
143	633	18.00000676	28
146	675	18.5	0
147	675	18.5	7504
148	675	18.5	7504
149	675	18.5	0
vector 150 BGPTestLoopback.R3.tcp "rcvd seq" ETV
vector 151 BGPTestLoopback.R3.tcp "rcvd ack" ETV
150	724	18.50002976	0
151	724	18.50002976	4625001
vector 152 BGPTestLoopback.R2.tcp tcpRcvQueueBytes ETV
vector 153 BGPTestLoopback.R2.tcp "advertised window" ETV
vector 154 BGPTestLoopback.R2.tcp "receive window" ETV
vector 155 BGPTestLoopback.R2.tcp "sent ack" ETV
vector 156 BGPTestLoopback.R4.tcp tcpRcvQueueBytes ETV
vector 157 BGPTestLoopback.R4.tcp "advertised window" ETV
vector 158 BGPTestLoopback.R4.tcp "receive window" ETV
vector 159 BGPTestLoopback.R4.tcp "sent ack" ETV
vector 160 BGPTestLoopback.R2.ipv4.arp arpRequestSent:vector(packetBytes) ETV
attr source arpRequestSent
attr title "ARP request sent, vector(packetBytes)"
vector 161 BGPTestLoopback.R3.ipv4.arp arpReplySent:vector(packetBytes) ETV
attr source arpReplySent
attr title "ARP replies sent, vector(packetBytes)"
vector 162 BGPTestLoopback.R3.tcp "rcvd seq" ETV
vector 163 BGPTestLoopback.R3.tcp "rcvd ack" ETV
vector 164 BGPTestLoopback.R3.tcp "advertised window" ETV
vector 165 BGPTestLoopback.R3.tcp "send window" ETV
vector 166 BGPTestLoopback.R3.tcp tcpRcvQueueBytes ETV
vector 167 BGPTestLoopback.R3.tcp "receive window" ETV
vector 168 BGPTestLoopback.R3.tcp "sent ack" ETV
vector 169 BGPTestLoopback.R4.tcp "rcvd seq" ETV
vector 170 BGPTestLoopback.R4.tcp "rcvd ack" ETV
vector 171 BGPTestLoopback.R4.tcp "send window" ETV
vector 172 BGPTestLoopback.R4.tcp "sent seq" ETV
vector 173 BGPTestLoopback.R4.tcp "unacked bytes" ETV
vector 174 BGPTestLoopback.R3.tcp "unacked bytes" ETV
vector 175 BGPTestLoopback.R3.tcp "sent seq" ETV
5	742	19.000001	1
5	742	19.000001	0
5	778	19.00001252	1
5	778	19.00001252	0
7	704	18.50001568	1
7	704	18.50001568	0
7	769	19.00000876	1
7	769	19.00000876	0
9	758	19.00000676	1
9	758	19.00000676	0
9	815	19.00002028	1
9	815	19.00002028	0
11	692	18.50000784	1
11	692	18.50000784	0
11	716	18.50002288	1
11	716	18.50002288	0
11	743	19.000001	1
11	743	19.000001	0
11	797	19.00001652	1
11	797	19.00001652	0
11	803	19.00001752	1
11	822	19.00002324	0
13	702	18.50001568	64
13	767	19.00000876	44
14	756	19.00000676	28
14	813	19.00002028	40
15	704	18.50001568	82
15	769	19.00000876	64
16	704	18.50001568	0
16	769	19.00000876	0
17	758	19.00000676	64
17	815	19.00002028	64
18	758	19.00000676	0
18	815	19.00002028	0
19	706	18.50001568	82
19	771	19.00000876	64
20	760	19.00000676	64
20	817	19.00002028	64
21	708	18.50002288	82
21	782	19.00001452	64
22	708	18.50002288	82
22	782	19.00001452	64
23	709	18.50002288	82
23	783	19.00001452	64
24	772	19.00001252	64
25	772	19.00001252	64
26	773	19.00001252	64
27	710	18.50002288	64
27	784	19.00001452	46
28	774	19.00001252	46
39	690	18.50000784	72
39	714	18.50002288	60
39	739	19.000001	44
39	795	19.00001652	40
39	801	19.00001752	77
40	692	18.50000784	90
40	716	18.50002288	78
40	743	19.000001	64
40	797	19.00001652	64
40	803	19.00001752	95
41	692	18.50000784	0
41	716	18.50002288	0
41	743	19.000001	0
41	797	19.00001652	0
41	822	19.00002324	5.72e-06
42	694	18.50000784	90
42	718	18.50002288	78
42	747	19.000001	64
42	799	19.00001652	64
42	824	19.00002324	95
43	696	18.50001568	90
43	720	18.50002976	78
43	750	19.00000676	64
43	818	19.00002228	64
44	696	18.50001568	90
44	720	18.50002976	78
44	750	19.00000676	64
44	818	19.00002228	64
45	697	18.50001568	90
45	721	18.50002976	78
45	751	19.00000676	64
45	819	19.00002228	64
46	698	18.50001568	72
46	722	18.50002976	60
46	753	19.00000676	46
46	820	19.00002228	46
49	738	19.000001	28
49	776	19.00001252	44
52	742	19.000001	64
52	778	19.00001252	64
53	742	19.000001	0
53	778	19.00001252	0
55	746	19.000001	64
55	780	19.00001252	64
59	748	19.00000676	64
59	804	19.00001828	64
60	748	19.00000676	64
60	804	19.00001828	64
61	749	19.00000676	64
61	805	19.00001828	64
63	752	19.00000676	46
63	806	19.00001828	46
152	731	19	0
153	731	19	7504
154	731	19	7504
155	731	19	0
156	733	19	0
156	788	19.00001552	0
156	791	19.00001552	0
157	733	19	7504
157	788	19.00001552	4757506
157	788	19.00001552	4757506
157	791	19.00001552	4757506
158	733	19	7504
158	788	19.00001552	7504
158	791	19.00001552	7504
159	733	19	0
159	788	19.00001552	4750002
159	791	19.00001552	4750002
160	736	19.000001	28
161	754	19.00000676	28
162	764	19.00000776	4750000
162	826	19.00002328	4750001
163	764	19.00000776	0
163	826	19.00002328	4750002
164	764	19.00000776	4757505
164	764	19.00000776	4757505
164	830	19.00002328	4757505
165	764	19.00000776	7504
165	826	19.00002328	7504
166	764	19.00000776	0
166	830	19.00002328	0
167	764	19.00000776	7504
167	830	19.00002328	7504
168	764	19.00000776	4750001
168	830	19.00002328	4750001
169	788	19.00001552	4750001
170	788	19.00001552	4750001
171	788	19.00001552	7504
172	791	19.00001552	4750001
173	791	19.00001552	37
174	826	19.00002328	0
174	830	19.00002328	37
175	830	19.00002328	4750002
vector 176 BGPTestLoopback.R2.tcp "rcvd seq" ETV
vector 177 BGPTestLoopback.R2.tcp "rcvd ack" ETV
176	845	19.00002704	0
177	845	19.00002704	4750001
vector 178 BGPTestLoopback.R3.tcp "rcvd dupAcks" ETV
vector 179 BGPTestLoopback.R4.tcp "rcvd dupAcks" ETV
vector 180 BGPTestLoopback.R4.tcp "measured RTT" ETV
vector 181 BGPTestLoopback.R4.tcp "smoothed RTT" ETV
vector 182 BGPTestLoopback.R4.tcp RTTVAR ETV
vector 183 BGPTestLoopback.R4.tcp RTO ETV
vector 184 BGPTestLoopback.R4.tcp cwnd ETV
vector 185 BGPTestLoopback.R3.tcp "measured RTT" ETV
vector 186 BGPTestLoopback.R3.tcp "smoothed RTT" ETV
vector 187 BGPTestLoopback.R3.tcp RTTVAR ETV
vector 188 BGPTestLoopback.R3.tcp RTO ETV
vector 189 BGPTestLoopback.R3.tcp cwnd ETV
vector 190 BGPTestLoopback.R4.tcp tcpRcvQueueBytes ETV
vector 191 BGPTestLoopback.R4.tcp "advertised window" ETV
vector 192 BGPTestLoopback.R4.tcp "receive window" ETV
vector 193 BGPTestLoopback.R4.tcp "sent ack" ETV
vector 194 BGPTestLoopback.R3.tcp "rcvd seq" ETV
vector 195 BGPTestLoopback.R3.tcp "rcvd ack" ETV
vector 196 BGPTestLoopback.R3.tcp "advertised window" ETV
vector 197 BGPTestLoopback.R3.tcp "send window" ETV
vector 198 BGPTestLoopback.R3.tcp tcpRcvQueueBytes ETV
vector 199 BGPTestLoopback.R3.tcp "receive window" ETV
vector 200 BGPTestLoopback.R3.tcp "sent ack" ETV
vector 201 BGPTestLoopback.R4.tcp "rcvd seq" ETV
vector 202 BGPTestLoopback.R4.tcp "rcvd ack" ETV
vector 203 BGPTestLoopback.R4.tcp "send window" ETV
vector 204 BGPTestLoopback.R4.tcp "sent seq" ETV
vector 205 BGPTestLoopback.R4.tcp "unacked bytes" ETV
vector 206 BGPTestLoopback.R3.tcp "unacked bytes" ETV
vector 207 BGPTestLoopback.R3.tcp "sent seq" ETV
vector 208 BGPTestLoopback.R4.tcp "rcvd dupAcks" ETV
vector 209 BGPTestLoopback.R3.tcp "rcvd dupAcks" ETV
vector 210 BGPTestLoopback.R4.tcp "measured RTT" ETV
vector 211 BGPTestLoopback.R4.tcp "smoothed RTT" ETV
vector 212 BGPTestLoopback.R4.tcp RTTVAR ETV
vector 213 BGPTestLoopback.R4.tcp RTO ETV
vector 214 BGPTestLoopback.R4.tcp cwnd ETV
vector 215 BGPTestLoopback.R3.tcp "measured RTT" ETV
vector 216 BGPTestLoopback.R3.tcp "smoothed RTT" ETV
vector 217 BGPTestLoopback.R3.tcp RTTVAR ETV
vector 218 BGPTestLoopback.R3.tcp RTO ETV
vector 219 BGPTestLoopback.R3.tcp cwnd ETV
vector 220 BGPTestLoopback.R3.tcp tcpRcvQueueBytes ETV
vector 221 BGPTestLoopback.R3.tcp "advertised window" ETV
vector 222 BGPTestLoopback.R3.tcp "receive window" ETV
vector 223 BGPTestLoopback.R3.tcp "sent ack" ETV
vector 224 BGPTestLoopback.R2.tcp "rcvd seq" ETV
vector 225 BGPTestLoopback.R2.tcp "rcvd ack" ETV
vector 226 BGPTestLoopback.R2.tcp "advertised window" ETV
vector 227 BGPTestLoopback.R2.tcp "send window" ETV
vector 228 BGPTestLoopback.R2.tcp tcpRcvQueueBytes ETV
vector 229 BGPTestLoopback.R2.tcp "receive window" ETV
vector 230 BGPTestLoopback.R2.tcp "sent ack" ETV
vector 231 BGPTestLoopback.R3.tcp "rcvd seq" ETV
vector 232 BGPTestLoopback.R3.tcp "rcvd ack" ETV
vector 233 BGPTestLoopback.R3.tcp "send window" ETV
vector 234 BGPTestLoopback.R3.tcp "sent seq" ETV
vector 235 BGPTestLoopback.R3.tcp "unacked bytes" ETV
vector 236 BGPTestLoopback.R2.tcp "unacked bytes" ETV
vector 237 BGPTestLoopback.R2.tcp "sent seq" ETV
vector 238 BGPTestLoopback.R2.tcp "rcvd dupAcks" ETV
vector 239 BGPTestLoopback.R3.tcp "rcvd dupAcks" ETV
vector 240 BGPTestLoopback.R3.tcp "measured RTT" ETV
vector 241 BGPTestLoopback.R3.tcp "smoothed RTT" ETV
vector 242 BGPTestLoopback.R3.tcp RTTVAR ETV
vector 243 BGPTestLoopback.R3.tcp RTO ETV
vector 244 BGPTestLoopback.R3.tcp cwnd ETV
vector 245 BGPTestLoopback.R2.tcp "measured RTT" ETV
vector 246 BGPTestLoopback.R2.tcp "smoothed RTT" ETV
vector 247 BGPTestLoopback.R2.tcp RTTVAR ETV
vector 248 BGPTestLoopback.R2.tcp RTO ETV
vector 249 BGPTestLoopback.R2.tcp cwnd ETV
vector 250 BGPTestLoopback.R2.tcp tcpRcvQueueBytes ETV
vector 251 BGPTestLoopback.R2.tcp "advertised window" ETV
vector 252 BGPTestLoopback.R2.tcp "receive window" ETV
vector 253 BGPTestLoopback.R2.tcp "sent ack" ETV
vector 254 BGPTestLoopback.R2.tcp "rcvd seq" ETV
vector 255 BGPTestLoopback.R2.tcp "rcvd ack" ETV
252	1535	22	7504
251	1535	22	7504
253	1535	22	0
254	1584	22.00002976	0
255	1584	22.00002976	5500001
250	1535	22	0
vector 256 BGPTestLoopback.R3.tcp tcpRcvQueueBytes ETV
vector 257 BGPTestLoopback.R3.tcp "advertised window" ETV
vector 258 BGPTestLoopback.R3.tcp "receive window" ETV
vector 259 BGPTestLoopback.R3.tcp "sent ack" ETV
vector 260 BGPTestLoopback.R2.tcp "rcvd seq" ETV
vector 261 BGPTestLoopback.R2.tcp "rcvd ack" ETV
vector 262 BGPTestLoopback.R2.tcp "advertised window" ETV
vector 263 BGPTestLoopback.R2.tcp "send window" ETV
vector 264 BGPTestLoopback.R2.tcp tcpRcvQueueBytes ETV
vector 265 BGPTestLoopback.R2.tcp "receive window" ETV
vector 266 BGPTestLoopback.R2.tcp "sent ack" ETV
vector 267 BGPTestLoopback.R3.tcp "rcvd seq" ETV
vector 268 BGPTestLoopback.R3.tcp "rcvd ack" ETV
vector 269 BGPTestLoopback.R3.tcp "send window" ETV
vector 270 BGPTestLoopback.R3.tcp "sent seq" ETV
vector 271 BGPTestLoopback.R3.tcp "unacked bytes" ETV
vector 272 BGPTestLoopback.R2.tcp "unacked bytes" ETV
vector 273 BGPTestLoopback.R2.tcp "sent seq" ETV
vector 274 BGPTestLoopback.R3.tcp "rcvd dupAcks" ETV
vector 275 BGPTestLoopback.R2.tcp "rcvd dupAcks" ETV
vector 276 BGPTestLoopback.R3.tcp "measured RTT" ETV
vector 277 BGPTestLoopback.R3.tcp "smoothed RTT" ETV
vector 278 BGPTestLoopback.R3.tcp RTTVAR ETV
vector 279 BGPTestLoopback.R3.tcp RTO ETV
vector 280 BGPTestLoopback.R3.tcp cwnd ETV
vector 281 BGPTestLoopback.R2.tcp "measured RTT" ETV
vector 282 BGPTestLoopback.R2.tcp "smoothed RTT" ETV
vector 283 BGPTestLoopback.R2.tcp RTTVAR ETV
vector 284 BGPTestLoopback.R2.tcp RTO ETV
vector 285 BGPTestLoopback.R2.tcp cwnd ETV
vector 286 BGPTestLoopback.R1.eth[0].mac packetDropInterfaceDown:vector(packetBytes) ETV
attr interpolationmode none
attr source packetDropReasonIsInterfaceDown(packetDropped)
attr title "packet drop: interface down, vector(packetBytes)"
vector 287 BGPTestLoopback.R2.eth[0].mac packetDropInterfaceDown:vector(packetBytes) ETV
attr interpolationmode none
attr source packetDropReasonIsInterfaceDown(packetDropped)
attr title "packet drop: interface down, vector(packetBytes)"
vector 288 BGPTestLoopback.R2.tcp numRTOs ETV
vector 289 BGPTestLoopback.R2.tcp ssthresh ETV
vector 290 BGPTestLoopback.R1.tcp numRTOs ETV
vector 291 BGPTestLoopback.R1.tcp ssthresh ETV
vector 292 BGPTestLoopback.R2.tcp numRTOs ETV
vector 293 BGPTestLoopback.R2.tcp ssthresh ETV
1	1481	21.00008008	1
1	1481	21.00008008	0
1	1523	21.50003008	1
1	1523	21.50003008	0
1	1851	26.00007736	1
1	1851	26.00007736	0
1	1900	77.00003348	1
1	1900	77.00003348	0
1	1925	77.50003208	1
1	1925	77.50003208	0
1	2003	79.009824670782	1
1	2003	79.009824670782	0
3	1435	21.00007056	1
3	1435	21.00007056	0
3	1512	21.50002288	1
3	1512	21.50002288	0
3	1811	26.00006864	1
3	1811	26.00006864	0
3	1909	77.00003452	1
3	1909	77.00003452	0
3	1917	77.50003112	1
3	1917	77.50003112	0
3	1933	78.758613236466	1
3	1933	78.758613236466	0
3	2010	79.25860827619	1
3	2010	79.25860827619	0
5	1236	21.00000876	1
5	1236	21.00000876	0
5	1279	21.00002428	1
5	1279	21.00002428	0
5	1300	21.00003348	1
5	1300	21.00003348	0
5	1339	21.00004228	1
5	1339	21.00004228	0
5	1361	21.00005004	1
5	1361	21.00005004	0
5	1401	21.00005884	1
5	1401	21.00005884	0
5	1423	21.00006956	1
5	1423	21.00006956	0
5	1541	22	1
5	1541	22	0
5	1564	22.00001568	1
5	1564	22.00001568	0
5	1630	26.0000072	1
5	1630	26.0000072	0
5	1666	26.00002128	1
5	1666	26.00002128	0
5	1694	26.00003208	1
5	1694	26.00003208	0
5	1718	26.00003992	1
5	1718	26.00003992	0
5	1748	26.00004928	1
5	1748	26.00004928	0
5	1772	26.00005712	1
5	1772	26.00005712	0
5	1808	26.00006864	1
5	1808	26.00006864	0
5	1883	27.00003008	1
5	1883	27.00003008	0
7	836	19.00002428	1
7	836	19.00002428	0
7	866	19.00003348	1
7	866	19.00003348	0
7	905	19.00004228	1
7	905	19.00004228	0
7	927	19.00005004	1
7	927	19.00005004	0
7	966	19.00005884	1
7	966	19.00005884	0
7	981	19.00006732	1
7	986	19.00006956	0
7	1030	19.5000072	1
7	1030	19.5000072	0
7	1066	19.50002128	1
7	1066	19.50002128	0
7	1094	19.50003208	1
7	1094	19.50003208	0
7	1118	19.50003992	1
7	1118	19.50003992	0
7	1147	19.50004928	1
7	1147	19.50004928	0
7	1171	19.50005712	1
7	1171	19.50005712	0
7	1186	19.5000668	1
7	1200	19.50006864	0
7	1447	21.0000716	1
7	1447	21.0000716	0
7	1603	23.50003008	1
7	1603	23.50003008	0
7	1792	26.00006768	1
7	1792	26.00006768	0
7	1942	79.00003348	1
7	1942	79.00003348	0
7	1981	79.00004332	1
7	1981	79.00004332	0
7	2026	79.50003208	1
7	2026	79.50003208	0
7	2038	79.50003952	1
7	2052	79.50004144	0
9	1222	21.000001	1
9	1222	21.000001	0
9	1254	21.00001652	1
9	1254	21.00001652	0
9	1260	21.00001752	1
9	1265	21.00002324	0
9	1311	21.00003452	1
9	1311	21.00003452	0
9	1330	21.00004124	1
9	1330	21.00004124	0
9	1373	21.00005108	1
9	1373	21.00005108	0
9	1392	21.0000578	1
9	1392	21.0000578	0
9	1441	21.0000706	1
9	1441	21.0000706	0
9	1552	22.00000784	1
9	1552	22.00000784	0
9	1576	22.00002288	1
9	1576	22.00002288	0
9	1619	26	1
9	1619	26	0
9	1646	26.0000144	1
9	1646	26.0000144	0
9	1651	26.0000144	1
9	1669	26.00002224	0
9	1682	26.00003112	1
9	1697	26.00003304	0
9	1708	26.00003896	1
9	1721	26.00004088	0
9	1735	26.00004832	1
9	1751	26.00005024	0
9	1762	26.00005616	1
9	1775	26.00005808	0
9	1790	26.00006768	1
9	1815	26.0000696	0
9	1872	27.00002288	1
9	1872	27.00002288	0
11	877	19.00003452	1
11	877	19.00003452	0
11	896	19.00004124	1
11	896	19.00004124	0
11	938	19.00005108	1
11	938	19.00005108	0
11	957	19.0000578	1
11	957	19.0000578	0
11	996	19.0000706	1
11	996	19.0000706	0
11	1019	19.5	1
11	1019	19.5	0
11	1046	19.5000144	1
11	1046	19.5000144	0
11	1051	19.5000144	1
11	1069	19.50002224	0
11	1082	19.50003112	1
11	1097	19.50003304	0
11	1108	19.50003896	1
11	1121	19.50004088	0
11	1134	19.50004832	1
11	1150	19.50005024	0
11	1161	19.50005616	1
11	1174	19.50005808	0
11	1196	19.50006768	1
11	1197	19.50006776	0
11	1491	21.00008112	1
11	1491	21.00008112	0
11	1592	23.50002288	1
11	1592	23.50002288	0
11	1832	26.0000764	1
11	1832	26.0000764	0
11	1951	79.00003452	1
11	1951	79.00003452	0
11	1971	79.00004228	1
11	1971	79.00004228	0
11	2018	79.50003112	1
11	2018	79.50003112	0
11	2049	79.50004048	1
11	2049	79.50004048	0
13	834	19.00002428	77
13	864	19.00003348	40
13	903	19.00004228	59
13	925	19.00005004	40
13	964	19.00005884	96
13	979	19.00006732	40
13	1028	19.5000072	64
13	1064	19.50002128	97
13	1092	19.50003208	60
13	1116	19.50003992	79
13	1145	19.50004928	60
13	1169	19.50005712	106
13	1184	19.5000668	60
13	1445	21.0000716	68
13	1601	23.50003008	72
13	1789	26.00006768	83
13	1940	79.00003348	59
13	1979	79.00004332	40
13	2024	79.50003208	79
13	2036	79.50003952	60
14	1220	21.000001	44
14	1252	21.00001652	40
14	1258	21.00001752	77
14	1309	21.00003452	40
14	1328	21.00004124	59
14	1371	21.00005108	40
14	1390	21.0000578	96
14	1439	21.0000706	40
14	1550	22.00000784	72
14	1574	22.00002288	60
14	1617	26	64
14	1641	26.0000144	60
14	1647	26.0000144	97
14	1680	26.00003112	60
14	1706	26.00003896	79
14	1733	26.00004832	60
14	1760	26.00005616	106
14	1786	26.00006768	60
14	1870	27.00002288	64
15	836	19.00002428	95
15	866	19.00003348	64
15	905	19.00004228	77
15	927	19.00005004	64
15	966	19.00005884	114
15	981	19.00006732	64
15	1030	19.5000072	82
15	1066	19.50002128	115
15	1094	19.50003208	78
15	1118	19.50003992	97
15	1147	19.50004928	78
15	1171	19.50005712	124
15	1186	19.5000668	78
15	1447	21.0000716	86
15	1603	23.50003008	90
15	1792	26.00006768	101
15	1942	79.00003348	77
15	1981	79.00004332	64
15	2026	79.50003208	97
15	2038	79.50003952	78
16	836	19.00002428	0
16	866	19.00003348	0
16	905	19.00004228	0
16	927	19.00005004	0
16	966	19.00005884	0
16	986	19.00006956	2.24e-06
16	1030	19.5000072	0
16	1066	19.50002128	0
16	1094	19.50003208	0
16	1118	19.50003992	0
16	1147	19.50004928	0
16	1171	19.50005712	0
16	1200	19.50006864	1.84e-06
16	1447	21.0000716	0
16	1603	23.50003008	0
16	1792	26.00006768	0
16	1942	79.00003348	0
16	1981	79.00004332	0
16	2026	79.50003208	0
16	2052	79.50004144	1.92e-06
17	1222	21.000001	64
17	1254	21.00001652	64
17	1260	21.00001752	95
17	1311	21.00003452	64
17	1330	21.00004124	77
17	1373	21.00005108	64
17	1392	21.0000578	114
17	1441	21.0000706	64
17	1552	22.00000784	90
17	1576	22.00002288	78
17	1619	26	82
17	1646	26.0000144	78
17	1651	26.0000144	115
17	1682	26.00003112	78
17	1708	26.00003896	97
17	1735	26.00004832	78
17	1762	26.00005616	124
17	1790	26.00006768	78
17	1872	27.00002288	82
18	1222	21.000001	0
18	1254	21.00001652	0
18	1265	21.00002324	5.72e-06
18	1311	21.00003452	0
18	1330	21.00004124	0
18	1373	21.00005108	0
18	1392	21.0000578	0
18	1441	21.0000706	0
18	1552	22.00000784	0
18	1576	22.00002288	0
18	1619	26	0
18	1646	26.0000144	0
18	1669	26.00002224	7.84e-06
18	1697	26.00003304	1.92e-06
18	1721	26.00004088	1.92e-06
18	1751	26.00005024	1.92e-06
18	1775	26.00005808	1.92e-06
18	1815	26.0000696	1.92e-06
18	1872	27.00002288	0
19	838	19.00002428	95
19	868	19.00003348	64
19	907	19.00004228	77
19	929	19.00005004	64
19	968	19.00005884	114
19	988	19.00006956	64
19	1032	19.5000072	82
19	1068	19.50002128	115
19	1096	19.50003208	78
19	1120	19.50003992	97
19	1149	19.50004928	78
19	1173	19.50005712	124
19	1202	19.50006864	78
19	1449	21.0000716	86
19	1605	23.50003008	90
19	1794	26.00006768	101
19	1944	79.00003348	77
19	1983	79.00004332	64
19	2028	79.50003208	97
20	1224	21.000001	64
20	1256	21.00001652	64
20	1267	21.00002324	95
20	1313	21.00003452	64
20	1332	21.00004124	77
20	1375	21.00005108	64
20	1394	21.0000578	114
20	1443	21.0000706	64
20	1554	22.00000784	90
20	1578	22.00002288	78
20	1621	26	82
20	1650	26.0000144	78
20	1671	26.00002224	115
20	1699	26.00003304	78
20	1723	26.00004088	97
20	1753	26.00005024	78
20	1777	26.00005808	124
20	1817	26.0000696	78
20	1874	27.00002288	82
21	858	19.00003252	95
21	880	19.00003924	64
21	919	19.00004908	77
21	941	19.0000558	64
21	982	19.0000686	114
21	999	19.00007532	64
21	1034	19.5000144	82
21	1072	19.50003112	115
21	1100	19.50003896	78
21	1124	19.50004832	97
21	1153	19.50005616	78
21	1187	19.50006768	124
21	1208	19.50007552	78
21	1473	21.00007912	86
21	1607	23.50003792	90
21	1823	26.0000764	101
21	1954	79.00004028	77
21	1991	79.00004908	64
21	2039	79.50004048	97
22	858	19.00003252	95
22	880	19.00003924	64
22	919	19.00004908	77
22	941	19.0000558	64
22	982	19.0000686	114
22	999	19.00007532	64
22	1034	19.5000144	82
22	1072	19.50003112	115
22	1100	19.50003896	78
22	1124	19.50004832	97
22	1153	19.50005616	78
22	1187	19.50006768	124
22	1208	19.50007552	78
22	1473	21.00007912	86
22	1607	23.50003792	90
22	1823	26.0000764	101
22	1954	79.00004028	77
22	1991	79.00004908	64
22	2039	79.50004048	97
23	859	19.00003252	95
23	881	19.00003924	64
23	920	19.00004908	77
23	942	19.0000558	64
23	983	19.0000686	114
23	1000	19.00007532	64
23	1035	19.5000144	82
23	1073	19.50003112	115
23	1101	19.50003896	78
23	1125	19.50004832	97
23	1154	19.50005616	78
23	1188	19.50006768	124
23	1209	19.50007552	78
23	1474	21.00007912	86
23	1608	23.50003792	90
23	1824	26.0000764	101
23	1955	79.00004028	77
23	1992	79.00004908	64
23	2040	79.50004048	97
24	839	19.00002604	64
24	1225	21.00000676	64
24	1261	21.00002228	64
24	1282	21.00003148	95
24	1322	21.00004028	64
24	1342	21.00004804	77
24	1384	21.00005684	64
24	1404	21.00006756	114
24	1457	21.00007636	64
24	1556	22.00001568	90
24	1580	22.00002976	78
24	1622	26.0000072	82
24	1653	26.00002128	78
24	1683	26.00003208	115
24	1709	26.00003992	78
24	1736	26.00004928	97
24	1763	26.00005712	78
24	1795	26.00006864	124
24	1835	26.00007648	78
24	1875	27.00003008	82
25	839	19.00002604	64
25	1225	21.00000676	64
25	1261	21.00002228	64
25	1282	21.00003148	95
25	1322	21.00004028	64
25	1342	21.00004804	77
25	1384	21.00005684	64
25	1404	21.00006756	114
25	1457	21.00007636	64
25	1556	22.00001568	90
25	1580	22.00002976	78
25	1622	26.0000072	82
25	1653	26.00002128	78
25	1683	26.00003208	115
25	1709	26.00003992	78
25	1736	26.00004928	97
25	1763	26.00005712	78
25	1795	26.00006864	124
25	1835	26.00007648	78
25	1875	27.00003008	82
26	840	19.00002604	64
26	1226	21.00000676	64
26	1262	21.00002228	64
26	1283	21.00003148	95
26	1323	21.00004028	64
26	1343	21.00004804	77
26	1385	21.00005684	64
26	1405	21.00006756	114
26	1458	21.00007636	64
26	1557	22.00001568	90
26	1581	22.00002976	78
26	1623	26.0000072	82
26	1654	26.00002128	78
26	1684	26.00003208	115
26	1710	26.00003992	78
26	1737	26.00004928	97
26	1764	26.00005712	78
26	1796	26.00006864	124
26	1836	26.00007648	78
26	1876	27.00003008	82
27	860	19.00003252	77
27	882	19.00003924	46
27	921	19.00004908	59
27	943	19.0000558	46
27	984	19.0000686	96
27	1001	19.00007532	46
27	1036	19.5000144	64
27	1074	19.50003112	97
27	1102	19.50003896	60
27	1126	19.50004832	79
27	1155	19.50005616	60
27	1189	19.50006768	106
27	1210	19.50007552	60
27	1475	21.00007912	68
27	1609	23.50003792	72
27	1825	26.0000764	83
27	1956	79.00004028	59
27	1993	79.00004908	46
27	2042	79.50004048	79
28	841	19.00002604	46
28	1227	21.00000676	46
28	1263	21.00002228	46
28	1284	21.00003148	77
28	1324	21.00004028	46
28	1344	21.00004804	59
28	1386	21.00005684	46
28	1406	21.00006756	96
28	1459	21.00007636	46
28	1558	22.00001568	72
28	1582	22.00002976	60
28	1624	26.0000072	64
28	1655	26.00002128	60
28	1686	26.00003208	97
28	1712	26.00003992	60
28	1739	26.00004928	79
28	1766	26.00005712	60
28	1798	26.00006864	106
28	1838	26.00007648	60
28	1877	27.00003008	64
30	1479	21.00008008	40
30	1521	21.50003008	72
30	1849	26.00007736	60
30	1898	77.00003348	59
30	1923	77.50003208	79
30	2001	79.009824670782	59
31	1481	21.00008008	64
31	1523	21.50003008	90
31	1851	26.00007736	78
31	1900	77.00003348	77
31	1925	77.50003208	97
31	2003	79.009824670782	77
32	1481	21.00008008	0
32	1523	21.50003008	0
32	1851	26.00007736	0
32	1900	77.00003348	0
32	1925	77.50003208	0
32	2003	79.009824670782	0
33	1483	21.00008008	64
33	1525	21.50003008	90
33	1853	26.00007736	78
33	1902	77.00003348	77
33	1927	77.50003208	97
33	2005	79.009824670782	77
34	1494	21.00008584	64
34	1527	21.50003792	90
34	1861	26.00008424	78
35	1494	21.00008584	64
35	1527	21.50003792	90
35	1861	26.00008424	78
36	1495	21.00008584	64
36	1528	21.50003792	90
36	1862	26.00008424	78
37	1496	21.00008584	46
37	1529	21.50003792	72
37	1864	26.00008424	60
39	875	19.00003452	40
39	894	19.00004124	59
39	936	19.00005108	40
39	955	19.0000578	68
39	994	19.0000706	40
39	1017	19.5	64
39	1041	19.5000144	60
39	1047	19.5000144	97
39	1080	19.50003112	60
39	1106	19.50003896	79
39	1132	19.50004832	60
39	1159	19.50005616	83
39	1194	19.50006768	60
39	1489	21.00008112	40
39	1590	23.50002288	64
39	1830	26.0000764	60
39	1949	79.00003452	59
39	1969	79.00004228	40
39	2016	79.50003112	79
39	2047	79.50004048	60
40	877	19.00003452	64
40	896	19.00004124	77
40	938	19.00005108	64
40	957	19.0000578	86
40	996	19.0000706	64
40	1019	19.5	82
40	1046	19.5000144	78
40	1051	19.5000144	115
40	1082	19.50003112	78
40	1108	19.50003896	97
40	1134	19.50004832	78
40	1161	19.50005616	101
40	1196	19.50006768	78
40	1491	21.00008112	64
40	1592	23.50002288	82
40	1832	26.0000764	78
40	1951	79.00003452	77
40	1971	79.00004228	64
40	2018	79.50003112	97
40	2049	79.50004048	78
41	877	19.00003452	0
41	896	19.00004124	0
41	938	19.00005108	0
41	957	19.0000578	0
41	996	19.0000706	0
41	1019	19.5	0
41	1046	19.5000144	0
41	1069	19.50002224	7.84e-06
41	1097	19.50003304	1.92e-06
41	1121	19.50004088	1.92e-06
41	1150	19.50005024	1.92e-06
41	1174	19.50005808	1.92e-06
41	1197	19.50006776	8e-08
41	1491	21.00008112	0
41	1592	23.50002288	0
41	1832	26.0000764	0
41	1951	79.00003452	0
41	1971	79.00004228	0
41	2018	79.50003112	0
41	2049	79.50004048	0
42	879	19.00003452	64
42	898	19.00004124	77
42	940	19.00005108	64
42	959	19.0000578	86
42	998	19.0000706	64
42	1021	19.5	82
42	1050	19.5000144	78
42	1071	19.50002224	115
42	1099	19.50003304	78
42	1123	19.50004088	97
42	1152	19.50005024	78
42	1176	19.50005808	101
42	1199	19.50006776	78
42	1493	21.00008112	64
42	1594	23.50002288	82
42	1834	26.0000764	78
42	1953	79.00003452	77
42	1973	79.00004228	64
42	2020	79.50003112	97
42	2051	79.50004048	78
43	848	19.00003148	95
43	888	19.00004028	64
43	908	19.00004804	77
43	949	19.00005684	64
43	969	19.00006532	86
43	1006	19.00007636	64
43	1022	19.5000072	82
43	1053	19.50002128	78
43	1083	19.50003208	115
43	1109	19.50003992	78
43	1135	19.50004928	97
43	1162	19.50005712	78
43	1177	19.5000668	101
43	1203	19.50007464	78
43	1501	21.00008688	64
43	1595	23.50003008	82
43	1856	26.00008328	78
43	1963	79.00004132	77
43	1984	79.00004804	64
43	2029	79.50003952	97
44	848	19.00003148	95
44	888	19.00004028	64
44	908	19.00004804	77
44	949	19.00005684	64
44	969	19.00006532	86
44	1006	19.00007636	64
44	1022	19.5000072	82
44	1053	19.50002128	78
44	1083	19.50003208	115
44	1109	19.50003992	78
44	1135	19.50004928	97
44	1162	19.50005712	78
44	1177	19.5000668	101
44	1203	19.50007464	78
44	1501	21.00008688	64
44	1595	23.50003008	82
44	1856	26.00008328	78
44	1963	79.00004132	77
44	1984	79.00004804	64
44	2029	79.50003952	97
45	849	19.00003148	95
45	889	19.00004028	64
45	909	19.00004804	77
45	950	19.00005684	64
45	970	19.00006532	86
45	1007	19.00007636	64
45	1023	19.5000072	82
45	1054	19.50002128	78
45	1084	19.50003208	115
45	1110	19.50003992	78
45	1136	19.50004928	97
45	1163	19.50005712	78
45	1178	19.5000668	101
45	1204	19.50007464	78
45	1502	21.00008688	64
45	1596	23.50003008	82
45	1857	26.00008328	78
45	1964	79.00004132	77
45	1985	79.00004804	64
45	2030	79.50003952	97
46	850	19.00003148	77
46	890	19.00004028	46
46	910	19.00004804	59
46	951	19.00005684	46
46	971	19.00006532	68
46	1008	19.00007636	46
46	1024	19.5000072	64
46	1055	19.50002128	60
46	1086	19.50003208	97
46	1112	19.50003992	60
46	1138	19.50004928	79
46	1165	19.50005712	60
46	1179	19.5000668	83
46	1205	19.50007464	60
46	1503	21.00008688	46
46	1597	23.50003008	64
46	1858	26.00008328	60
46	1965	79.00004132	59
46	1986	79.00004804	46
46	2031	79.50003952	79
48	1433	21.00007056	68
48	1510	21.50002288	64
48	1807	26.00006864	83
48	1907	77.00003452	59
48	1915	77.50003112	79
48	1931	78.758613236466	59
48	2008	79.25860827619	79
49	1234	21.00000876	44
49	1277	21.00002428	77
49	1298	21.00003348	40
49	1337	21.00004228	59
49	1359	21.00005004	40
49	1399	21.00005884	96
49	1421	21.00006956	40
49	1539	22	72
49	1562	22.00001568	64
49	1628	26.0000072	64
49	1664	26.00002128	97
49	1692	26.00003208	60
49	1716	26.00003992	79
49	1746	26.00004928	60
49	1770	26.00005712	106
49	1804	26.00006864	60
49	1881	27.00003008	72
50	1435	21.00007056	86
50	1512	21.50002288	82
50	1811	26.00006864	101
50	1909	77.00003452	77
50	1917	77.50003112	97
50	1933	78.758613236466	77
50	2010	79.25860827619	97
51	1435	21.00007056	0
51	1512	21.50002288	0
51	1811	26.00006864	0
51	1909	77.00003452	0
51	1917	77.50003112	0
51	1933	78.758613236466	0
51	2010	79.25860827619	0
52	1236	21.00000876	64
52	1279	21.00002428	95
52	1300	21.00003348	64
52	1339	21.00004228	77
52	1361	21.00005004	64
52	1401	21.00005884	114
52	1423	21.00006956	64
52	1541	22	90
52	1564	22.00001568	82
52	1630	26.0000072	82
52	1666	26.00002128	115
52	1694	26.00003208	78
52	1718	26.00003992	97
52	1748	26.00004928	78
52	1772	26.00005712	124
52	1808	26.00006864	78
52	1883	27.00003008	90
53	1236	21.00000876	0
53	1279	21.00002428	0
53	1300	21.00003348	0
53	1339	21.00004228	0
53	1361	21.00005004	0
53	1401	21.00005884	0
53	1423	21.00006956	0
53	1541	22	0
53	1564	22.00001568	0
53	1630	26.0000072	0
53	1666	26.00002128	0
53	1694	26.00003208	0
53	1718	26.00003992	0
53	1748	26.00004928	0
53	1772	26.00005712	0
53	1808	26.00006864	0
53	1883	27.00003008	0
54	1437	21.00007056	86
54	1514	21.50002288	82
54	1814	26.00006864	101
54	1911	77.00003452	77
54	1919	77.50003112	97
54	1935	78.758613236466	77
54	2012	79.25860827619	97
55	1238	21.00000876	64
55	1281	21.00002428	95
55	1302	21.00003348	64
55	1341	21.00004228	77
55	1363	21.00005004	64
55	1403	21.00005884	114
55	1425	21.00006956	64
55	1543	22	90
55	1566	22.00001568	82
55	1632	26.0000072	82
55	1668	26.00002128	115
55	1696	26.00003208	78
55	1720	26.00003992	97
55	1750	26.00004928	78
55	1774	26.00005712	124
55	1812	26.00006864	78
55	1885	27.00003008	90
56	1464	21.00007808	86
56	1515	21.50003008	82
56	1841	26.00007736	101
57	1464	21.00007808	86
57	1515	21.50003008	82
57	1841	26.00007736	101
58	1465	21.00007808	86
58	1516	21.50003008	82
58	1842	26.00007736	101
59	1239	21.00001452	64
59	1292	21.00003252	95
59	1314	21.00003924	64
59	1353	21.00004908	77
59	1376	21.0000558	64
59	1415	21.0000686	114
59	1450	21.00007532	64
59	1544	22.00000784	90
59	1568	22.00002288	82
59	1634	26.0000144	82
59	1672	26.00003112	115
59	1700	26.00003896	78
59	1724	26.00004832	97
59	1754	26.00005616	78
59	1778	26.00006768	124
59	1818	26.00007552	78
59	1887	27.00003792	90
60	1239	21.00001452	64
60	1292	21.00003252	95
60	1314	21.00003924	64
60	1353	21.00004908	77
60	1376	21.0000558	64
60	1415	21.0000686	114
60	1450	21.00007532	64
60	1544	22.00000784	90
60	1568	22.00002288	82
60	1634	26.0000144	82
60	1672	26.00003112	115
60	1700	26.00003896	78
60	1724	26.00004832	97
60	1754	26.00005616	78
60	1778	26.00006768	124
60	1818	26.00007552	78
60	1887	27.00003792	90
61	1240	21.00001452	64
61	1293	21.00003252	95
61	1315	21.00003924	64
61	1354	21.00004908	77
61	1377	21.0000558	64
61	1416	21.0000686	114
61	1451	21.00007532	64
61	1545	22.00000784	90
61	1569	22.00002288	82
61	1635	26.0000144	82
61	1673	26.00003112	115
61	1701	26.00003896	78
61	1725	26.00004832	97
61	1755	26.00005616	78
61	1779	26.00006768	124
61	1819	26.00007552	78
61	1888	27.00003792	90
62	1466	21.00007808	68
62	1517	21.50003008	64
62	1844	26.00007736	83
63	1241	21.00001452	46
63	1294	21.00003252	77
63	1316	21.00003924	46
63	1355	21.00004908	59
63	1378	21.0000558	46
63	1417	21.0000686	96
63	1452	21.00007532	46
63	1546	22.00000784	72
63	1570	22.00002288	64
63	1636	26.0000144	64
63	1674	26.00003112	97
63	1702	26.00003896	60
63	1726	26.00004832	79
63	1756	26.00005616	60
63	1780	26.00006768	106
63	1820	26.00007552	60
63	1889	27.00003792	72
78	1413	21.00006856	0
78	1904	77.00003352	0
78	1928	78.758612236466	0
79	1413	21.00006856	4257590
79	1904	77.00003352	4257590
79	1928	78.758612236466	4257590
80	1413	21.00006856	7504
80	1904	77.00003352	7504
80	1928	78.758612236466	7504
81	1413	21.00006856	4250086
81	1904	77.00003352	4250086
81	1928	78.758612236466	4250086
82	1470	21.00007908	4250113
83	1470	21.00007908	4250086
84	1470	21.00007908	4257645
84	1895	77.00003248	4257645
84	1998	79.009823670782	4257645
86	1470	21.00007908	0
86	1470	21.00007908	0
86	1895	77.00003248	0
86	1998	79.009823670782	0
87	1470	21.00007908	7504
87	1895	77.00003248	7504
87	1998	79.009823670782	7504
88	1470	21.00007908	4250141
88	1895	77.00003248	4250141
88	1998	79.009823670782	4250141
89	1500	21.00008684	4250086
90	1500	21.00008684	4250141
91	1500	21.00008684	7504
92	1413	21.00006856	4250113
93	1413	21.00006856	28
93	1500	21.00008684	0
93	1904	77.00003352	19
94	1895	77.00003248	19
96	1470	21.00007908	0
97	1500	21.00008684	0
98	1500	21.00008684	1.828e-05
99	1500	21.00008684	8.074902e-06
100	1500	21.00008684	0.439642660391
101	1500	21.00008684	1.758578716466
102	1500	21.00008684	1072
102	1928	78.758612236466	536
107	1998	79.009823670782	536
108	1803	26.00006864	0
108	1913	77.50003112	0
108	2006	79.25860827619	0
109	1803	26.00006864	4382585
109	1913	77.50003112	4382585
109	2006	79.25860827619	4382585
110	1803	26.00006864	7504
110	1913	77.50003112	7504
110	2006	79.25860827619	7504
111	1803	26.00006864	4375081
111	1913	77.50003112	4375081
111	2006	79.25860827619	4375081
112	1846	26.00007736	4375103
113	1846	26.00007736	4375081
114	1846	26.00007736	4382630
114	1921	77.50003208	4382630
116	1846	26.00007736	0
116	1846	26.00007736	0
116	1921	77.50003208	0
117	1846	26.00007736	7504
117	1921	77.50003208	7504
118	1846	26.00007736	4375126
118	1921	77.50003208	4375126
119	1866	26.00008424	4375081
120	1866	26.00008424	4375126
121	1866	26.00008424	7504
122	1803	26.00006864	4375103
123	1803	26.00006864	23
123	1866	26.00008424	0
123	1913	77.50003112	19
124	1921	77.50003208	19
126	1866	26.00008424	0
127	1846	26.00007736	0
128	1866	26.00008424	1.56e-05
129	1866	26.00008424	7.770254e-06
130	1866	26.00008424	0.439642346484
131	1866	26.00008424	1.75857715619
132	1866	26.00008424	1072
132	2006	79.25860827619	536
156	870	19.00003352	0
156	870	19.00003352	0
156	886	19.00004024	0
156	931	19.00005008	0
156	931	19.00005008	0
156	947	19.0000568	0
156	990	19.0000696	0
156	990	19.0000696	0
156	1485	21.00008012	0
156	1485	21.00008012	0
156	1946	79.00003352	0
156	1960	79.00004128	0
156	1960	79.00004128	0
157	870	19.00003352	4757543
157	886	19.00004024	4757543
157	931	19.00005008	4757562
157	947	19.0000568	4757562
157	990	19.0000696	4757618
157	1485	21.00008012	4757646
157	1946	79.00003352	4757646
157	1960	79.00004128	4757665
158	870	19.00003352	7504
158	886	19.00004024	7504
158	931	19.00005008	7504
158	947	19.0000568	7504
158	990	19.0000696	7504
158	1485	21.00008012	7504
158	1946	79.00003352	7504
158	1960	79.00004128	7504
159	870	19.00003352	4750039
159	886	19.00004024	4750039
159	931	19.00005008	4750058
159	947	19.0000568	4750058
159	990	19.0000696	4750114
159	1485	21.00008012	4750142
159	1946	79.00003352	4750142
159	1960	79.00004128	4750161
162	854	19.00003248	4750001
162	900	19.00004128	4750038
162	914	19.00004904	4750038
162	961	19.00005784	4750057
162	975	19.00006632	4750057
162	1012	19.00007736	4750085
162	1507	21.00008788	4750085
162	1975	79.00004232	4750085
162	1990	79.00004904	4750104
163	854	19.00003248	4750002
163	900	19.00004128	4750039
163	914	19.00004904	4750039
163	961	19.00005784	4750058
163	975	19.00006632	4750058
163	1012	19.00007736	4750114
163	1507	21.00008788	4750142
163	1975	79.00004232	4750142
163	1990	79.00004904	4750161
164	854	19.00003248	4757542
164	900	19.00004128	4757542
164	914	19.00004904	4757561
164	961	19.00005784	4757561
164	975	19.00006632	4757589
164	1430	21.0000696	4757589
164	1937	79.00003248	4757589
164	1975	79.00004232	4757608
165	900	19.00004128	7504
165	961	19.00005784	7504
165	1012	19.00007736	7504
165	1507	21.00008788	7504
165	1990	79.00004904	7504
166	854	19.00003248	0
166	854	19.00003248	0
166	900	19.00004128	0
166	914	19.00004904	0
166	914	19.00004904	0
166	961	19.00005784	0
166	975	19.00006632	0
166	975	19.00006632	0
166	1430	21.0000696	0
166	1937	79.00003248	0
166	1975	79.00004232	0
166	1975	79.00004232	0
167	854	19.00003248	7504
167	900	19.00004128	7504
167	914	19.00004904	7504
167	961	19.00005784	7504
167	975	19.00006632	7504
167	1430	21.0000696	7504
167	1937	79.00003248	7504
167	1975	79.00004232	7504
168	854	19.00003248	4750038
168	900	19.00004128	4750038
168	914	19.00004904	4750057
168	961	19.00005784	4750057
168	975	19.00006632	4750085
168	1430	21.0000696	4750085
168	1937	79.00003248	4750085
168	1975	79.00004232	4750104
169	870	19.00003352	4750002
169	886	19.00004024	4750039
169	931	19.00005008	4750039
169	947	19.0000568	4750058
169	990	19.0000696	4750058
169	1005	19.00007632	4750114
169	1485	21.00008012	4750114
169	1960	79.00004128	4750142
169	1997	79.00005008	4750161
170	870	19.00003352	4750001
170	886	19.00004024	4750038
170	931	19.00005008	4750038
170	947	19.0000568	4750057
170	990	19.0000696	4750057
170	1005	19.00007632	4750085
170	1485	21.00008012	4750085
170	1960	79.00004128	4750085
170	1997	79.00005008	4750104
171	886	19.00004024	7504
171	947	19.0000568	7504
171	1005	19.00007632	7504
171	1997	79.00005008	7504
172	947	19.0000568	4750057
173	886	19.00004024	0
173	886	19.00004024	19
173	947	19.0000568	0
173	947	19.0000568	28
173	1005	19.00007632	0
173	1946	79.00003352	19
173	1997	79.00005008	0
174	900	19.00004128	0
174	900	19.00004128	19
174	961	19.00005784	0
174	961	19.00005784	56
174	1012	19.00007736	0
174	1430	21.0000696	28
174	1507	21.00008788	0
174	1937	79.00003248	19
174	1990	79.00004904	0
175	961	19.00005784	4750058
175	1430	21.0000696	4750114
178	854	19.00003248	0
178	900	19.00004128	0
178	914	19.00004904	0
178	961	19.00005784	0
178	975	19.00006632	0
178	1012	19.00007736	0
178	1507	21.00008788	0
178	1975	79.00004232	0
178	1990	79.00004904	0
179	870	19.00003352	0
179	886	19.00004024	0
179	931	19.00005008	0
179	947	19.0000568	0
179	990	19.0000696	0
179	1005	19.00007632	0
179	1485	21.00008012	0
179	1960	79.00004128	0
179	1997	79.00005008	0
180	886	19.00004024	2.472e-05
180	947	19.0000568	1.656e-05
180	1005	19.00007632	1.952e-05
180	1997	79.00005008	1.656e-05
181	886	19.00004024	3.09e-06
181	947	19.0000568	4.77375e-06
181	1005	19.00007632	6.617031e-06
181	1997	79.00005008	7.859902e-06
182	886	19.00004024	0.65625309
182	947	19.0000568	0.5742231375
182	1005	19.00007632	0.502447088594
182	1997	79.00005008	0.439642445391
183	886	19.00004024	2.62501545
183	947	19.0000568	2.29689732375
183	1005	19.00007632	2.009794971407
183	1997	79.00005008	1.758577641466
184	886	19.00004024	1072
184	947	19.0000568	1608
184	1005	19.00007632	2144
184	1997	79.00005008	1072
185	900	19.00004128	1.8e-05
185	961	19.00005784	1.656e-05
185	1012	19.00007736	1.952e-05
185	1507	21.00008788	1.828e-05
185	1990	79.00004904	1.656e-05
186	900	19.00004128	2.25e-06
186	961	19.00005784	4.03875e-06
186	1012	19.00007736	5.973906e-06
186	1507	21.00008788	7.512168e-06
186	1990	79.00004904	8.643147e-06
187	900	19.00004128	0.65625225
187	961	19.00005784	0.5742225075
187	1012	19.00007736	0.502446629219
187	1507	21.00008788	0.439642338828
187	1990	79.00004904	0.384688177454
188	900	19.00004128	2.62501125
188	961	19.00005784	2.29689406875
188	1012	19.00007736	2.009792490782
188	1507	21.00008788	1.75857686748
188	1990	79.00004904	1.538761352963
189	900	19.00004128	1072
189	961	19.00005784	1608
189	1012	19.00007736	2144
189	1507	21.00008788	2680
189	1990	79.00004904	1072
190	1015	19.5	0
190	1038	19.5000144	0
190	1042	19.5000144	0
190	1076	19.50003112	0
190	1076	19.50003112	0
190	1104	19.50003896	0
190	1128	19.50004832	0
190	1128	19.50004832	0
190	1157	19.50005616	0
190	1191	19.50006768	0
190	1191	19.50006768	0
190	1827	26.0000764	0
190	1827	26.0000764	0
190	2014	79.50003112	0
190	2044	79.50004048	0
190	2044	79.50004048	0
191	1015	19.5	7504
191	1038	19.5000144	4882506
191	1038	19.5000144	4882506
191	1042	19.5000144	4882506
191	1076	19.50003112	4882543
191	1104	19.50003896	4882543
191	1128	19.50004832	4882562
191	1157	19.50005616	4882562
191	1191	19.50006768	4882608
191	1827	26.0000764	4882631
191	2014	79.50003112	4882631
191	2044	79.50004048	4882650
192	1015	19.5	7504
192	1038	19.5000144	7504
192	1042	19.5000144	7504
192	1076	19.50003112	7504
192	1104	19.50003896	7504
192	1128	19.50004832	7504
192	1157	19.50005616	7504
192	1191	19.50006768	7504
192	1827	26.0000764	7504
192	2014	79.50003112	7504
192	2044	79.50004048	7504
193	1015	19.5	0
193	1038	19.5000144	4875002
193	1042	19.5000144	4875002
193	1076	19.50003112	4875039
193	1104	19.50003896	4875039
193	1128	19.50004832	4875058
193	1157	19.50005616	4875058
193	1191	19.50006768	4875104
193	1827	26.0000764	4875127
193	2014	79.50003112	4875127
193	2044	79.50004048	4875146
194	1026	19.5000072	4875000
194	1057	19.50002128	4875001
194	1088	19.50003208	4875001
194	1114	19.50003992	4875038
194	1140	19.50004928	4875038
194	1167	19.50005712	4875057
194	1181	19.5000668	4875057
194	1207	19.50007464	4875080
194	1860	26.00008328	4875080
194	2033	79.50003952	4875080
195	1026	19.5000072	0
195	1057	19.50002128	4875002
195	1088	19.50003208	4875002
195	1114	19.50003992	4875039
195	1140	19.50004928	4875039
195	1167	19.50005712	4875058
195	1181	19.5000668	4875058
195	1207	19.50007464	4875104
195	1860	26.00008328	4875127
195	2033	79.50003952	4875127
196	1026	19.5000072	4882505
196	1026	19.5000072	4882505
196	1061	19.50002128	4882505
196	1088	19.50003208	4882542
196	1114	19.50003992	4882542
196	1140	19.50004928	4882561
196	1167	19.50005712	4882561
196	1181	19.5000668	4882584
196	1785	26.00006768	4882584
196	2022	79.50003208	4882584
196	2033	79.50003952	4882603
197	1026	19.5000072	7504
197	1057	19.50002128	7504
197	1114	19.50003992	7504
197	1167	19.50005712	7504
197	1207	19.50007464	7504
197	1860	26.00008328	7504
198	1026	19.5000072	0
198	1061	19.50002128	0
198	1088	19.50003208	0
198	1088	19.50003208	0
198	1114	19.50003992	0
198	1140	19.50004928	0
198	1140	19.50004928	0
198	1167	19.50005712	0
198	1181	19.5000668	0
198	1181	19.5000668	0
198	1785	26.00006768	0
198	2022	79.50003208	0
198	2033	79.50003952	0
198	2033	79.50003952	0
199	1026	19.5000072	7504
199	1061	19.50002128	7504
199	1088	19.50003208	7504
199	1114	19.50003992	7504
199	1140	19.50004928	7504
199	1167	19.50005712	7504
199	1181	19.5000668	7504
199	1785	26.00006768	7504
199	2022	79.50003208	7504
199	2033	79.50003952	7504
200	1026	19.5000072	4875001
200	1061	19.50002128	4875001
200	1088	19.50003208	4875038
200	1114	19.50003992	4875038
200	1140	19.50004928	4875057
200	1167	19.50005712	4875057
200	1181	19.5000668	4875080
200	1785	26.00006768	4875080
200	2022	79.50003208	4875080
200	2033	79.50003952	4875099
201	1038	19.5000144	4875001
201	1076	19.50003112	4875002
201	1104	19.50003896	4875039
201	1128	19.50004832	4875039
201	1157	19.50005616	4875058
201	1191	19.50006768	4875058
201	1212	19.50007552	4875104
201	1827	26.0000764	4875104
201	2044	79.50004048	4875127
202	1038	19.5000144	4875001
202	1076	19.50003112	4875001
202	1104	19.50003896	4875038
202	1128	19.50004832	4875038
202	1157	19.50005616	4875057
202	1191	19.50006768	4875057
202	1212	19.50007552	4875080
202	1827	26.0000764	4875080
202	2044	79.50004048	4875080
203	1038	19.5000144	7504
203	1104	19.50003896	7504
203	1157	19.50005616	7504
203	1212	19.50007552	7504
204	1042	19.5000144	4875001
204	1157	19.50005616	4875057
205	1042	19.5000144	37
205	1104	19.50003896	0
205	1104	19.50003896	19
205	1157	19.50005616	0
205	1157	19.50005616	23
205	1212	19.50007552	0
205	2014	79.50003112	19
206	1057	19.50002128	0
206	1061	19.50002128	37
206	1114	19.50003992	0
206	1114	19.50003992	19
206	1167	19.50005712	0
206	1167	19.50005712	46
206	1207	19.50007464	0
206	1785	26.00006768	23
206	1860	26.00008328	0
206	2022	79.50003208	19
207	1061	19.50002128	4875002
207	1167	19.50005712	4875058
207	1785	26.00006768	4875104
208	1076	19.50003112	0
208	1104	19.50003896	0
208	1128	19.50004832	0
208	1157	19.50005616	0
208	1191	19.50006768	0
208	1212	19.50007552	0
208	1827	26.0000764	0
208	2044	79.50004048	0
209	1088	19.50003208	0
209	1114	19.50003992	0
209	1140	19.50004928	0
209	1167	19.50005712	0
209	1181	19.5000668	0
209	1207	19.50007464	0
209	1860	26.00008328	0
209	2033	79.50003952	0
210	1104	19.50003896	2.456e-05
210	1157	19.50005616	1.72e-05
210	1212	19.50007552	1.936e-05
211	1104	19.50003896	3.07e-06
211	1157	19.50005616	4.83625e-06
211	1212	19.50007552	6.651719e-06
212	1104	19.50003896	0.65625307
212	1157	19.50005616	0.5742232025
212	1212	19.50007552	0.502447117656
213	1104	19.50003896	2.62501535
213	1157	19.50005616	2.29689764625
213	1212	19.50007552	2.009795122343
214	1104	19.50003896	1072
214	1157	19.50005616	1608
214	1212	19.50007552	2144
215	1114	19.50003992	1.864e-05
215	1167	19.50005712	1.72e-05
215	1207	19.50007464	1.752e-05
215	1860	26.00008328	1.56e-05
216	1114	19.50003992	2.33e-06
216	1167	19.50005712	4.18875e-06
216	1207	19.50007464	5.855156e-06
216	1860	26.00008328	7.073262e-06
217	1114	19.50003992	0.65625233
217	1167	19.50005712	0.5742226475
217	1207	19.50007464	0.502446482969
217	1860	26.00008328	0.439641890703
218	1114	19.50003992	2.62501165
218	1167	19.50005712	2.29689477875
218	1207	19.50007464	2.009791787032
218	1860	26.00008328	1.758574636074
219	1114	19.50003992	1072
219	1167	19.50005712	1608
219	1207	19.50007464	2144
219	1860	26.00008328	1072
220	1217	21	0
220	1245	21.00001552	0
220	1248	21.00001552	0
220	1304	21.00003352	0
[...]
335	3998	217.00015844	0
336	3853	217.00011972	2.492e-05
336	3915	217.00013648	1.676e-05
336	3998	217.00015844	2.196e-05
337	3853	217.00011972	3.115e-06
337	3915	217.00013648	4.820625e-06
337	3998	217.00015844	6.963047e-06
338	3853	217.00011972	0.656253115
338	3915	217.00013648	0.57422318125
338	3998	217.00015844	0.502447426016
339	3853	217.00011972	2.625015575
339	3915	217.00013648	2.296897545625
339	3998	217.00015844	2.009796667111
340	3853	217.00011972	1072
340	3915	217.00013648	1608
340	3998	217.00015844	2144
341	3867	217.00012086	1.82e-05
341	3929	217.00013762	1.676e-05
341	4011	217.00015958	2.196e-05
342	3867	217.00012086	2.275e-06
342	3929	217.00013762	4.085625e-06
342	4011	217.00015958	6.319922e-06
343	3867	217.00012086	0.656252275
343	3929	217.00013762	0.57422255125
343	4011	217.00015958	0.502446966641
344	3867	217.00012086	2.625011375
344	3929	217.00013762	2.296894290625
344	4011	217.00015958	2.009794186486
345	3867	217.00012086	1072
345	3929	217.00013762	1608
345	4011	217.00015958	2144
346	4081	222.50007736	0
346	4104	222.50009196	0
346	4108	222.50009196	0
346	4142	222.50010888	0
346	4142	222.50010888	0
346	4170	222.50011672	0
346	4194	222.50012608	0
346	4194	222.50012608	0
346	4224	222.50013392	0
346	4266	222.50014728	0
346	4266	222.50014728	0
347	4081	222.50007736	7504
347	4104	222.50009196	55632526
347	4104	222.50009196	55632526
347	4108	222.50009196	55632526
347	4142	222.50010888	55632563
347	4170	222.50011672	55632563
347	4194	222.50012608	55632582
347	4224	222.50013392	55632582
347	4266	222.50014728	55632651
348	4081	222.50007736	7504
348	4104	222.50009196	7504
348	4108	222.50009196	7504
348	4142	222.50010888	7504
348	4170	222.50011672	7504
348	4194	222.50012608	7504
348	4224	222.50013392	7504
348	4266	222.50014728	7504
349	4081	222.50007736	0
349	4104	222.50009196	55625022
349	4108	222.50009196	55625022
349	4142	222.50010888	55625059
349	4170	222.50011672	55625059
349	4194	222.50012608	55625078
349	4224	222.50013392	55625078
349	4266	222.50014728	55625147
350	4092	222.50008466	55625019
350	4123	222.50009894	55625020
350	4154	222.50010974	55625020
350	4180	222.50011758	55625057
350	4206	222.50012694	55625057
350	4234	222.50013478	55625076
350	4248	222.50014446	55625076
350	4301	222.50015426	55625099
351	4092	222.50008466	0
351	4123	222.50009894	55625022
351	4154	222.50010974	55625022
351	4180	222.50011758	55625059
351	4206	222.50012694	55625059
351	4234	222.50013478	55625078
351	4248	222.50014446	55625078
351	4301	222.50015426	55625147
352	4092	222.50008466	55632524
352	4092	222.50008466	55632524
352	4127	222.50009894	55632524
352	4154	222.50010974	55632561
352	4180	222.50011758	55632561
352	4206	222.50012694	55632580
352	4234	222.50013478	55632580
352	4248	222.50014446	55632603
353	4092	222.50008466	7504
353	4123	222.50009894	7504
353	4180	222.50011758	7504
353	4234	222.50013478	7504
353	4301	222.50015426	7504
354	4092	222.50008466	0
354	4127	222.50009894	0
354	4154	222.50010974	0
354	4154	222.50010974	0
354	4180	222.50011758	0
354	4206	222.50012694	0
354	4206	222.50012694	0
354	4234	222.50013478	0
354	4248	222.50014446	0
354	4248	222.50014446	0
355	4092	222.50008466	7504
355	4127	222.50009894	7504
355	4154	222.50010974	7504
355	4180	222.50011758	7504
355	4206	222.50012694	7504
355	4234	222.50013478	7504
355	4248	222.50014446	7504
356	4092	222.50008466	55625020
356	4127	222.50009894	55625020
356	4154	222.50010974	55625057
356	4180	222.50011758	55625057
356	4206	222.50012694	55625076
356	4234	222.50013478	55625076
356	4248	222.50014446	55625099
357	4104	222.50009196	55625021
357	4142	222.50010888	55625022
357	4170	222.50011672	55625059
357	4194	222.50012608	55625059
357	4224	222.50013392	55625078
357	4266	222.50014728	55625078
357	4307	222.50015512	55625147
358	4104	222.50009196	55625020
358	4142	222.50010888	55625020
358	4170	222.50011672	55625057
358	4194	222.50012608	55625057
358	4224	222.50013392	55625076
358	4266	222.50014728	55625076
358	4307	222.50015512	55625099
359	4104	222.50009196	7504
359	4170	222.50011672	7504
359	4224	222.50013392	7504
359	4307	222.50015512	7504
360	4108	222.50009196	55625020
360	4224	222.50013392	55625076
361	4108	222.50009196	37
361	4170	222.50011672	0
361	4170	222.50011672	19
361	4224	222.50013392	0
361	4224	222.50013392	23
361	4307	222.50015512	0
362	4123	222.50009894	0
362	4127	222.50009894	37
362	4180	222.50011758	0
362	4180	222.50011758	19
362	4234	222.50013478	0
362	4234	222.50013478	69
362	4301	222.50015426	0
363	4127	222.50009894	55625022
363	4234	222.50013478	55625078
364	4142	222.50010888	0
364	4170	222.50011672	0
364	4194	222.50012608	0
364	4224	222.50013392	0
364	4266	222.50014728	0
364	4307	222.50015512	0
365	4154	222.50010974	0
365	4180	222.50011758	0
365	4206	222.50012694	0
365	4234	222.50013478	0
365	4248	222.50014446	0
365	4301	222.50015426	0
366	4170	222.50011672	2.476e-05
366	4224	222.50013392	1.72e-05
366	4307	222.50015512	2.12e-05
367	4170	222.50011672	3.095e-06
367	4224	222.50013392	4.858125e-06
367	4307	222.50015512	6.900859e-06
368	4170	222.50011672	0.656253095
368	4224	222.50013392	0.57422322125
368	4307	222.50015512	0.502447361328
369	4170	222.50011672	2.625015475
369	4224	222.50013392	2.296897743125
369	4307	222.50015512	2.009796346171
370	4170	222.50011672	1072
370	4224	222.50013392	1608
370	4307	222.50015512	2144
371	4180	222.50011758	1.864e-05
371	4234	222.50013478	1.72e-05
371	4301	222.50015426	1.948e-05
372	4180	222.50011758	2.33e-06
372	4234	222.50013478	4.18875e-06
372	4301	222.50015426	6.100156e-06
373	4180	222.50011758	0.65625233
373	4234	222.50013478	0.5742226475
373	4301	222.50015426	0.502446727969
374	4180	222.50011758	2.62501165
374	4234	222.50013478	2.29689477875
374	4301	222.50015426	2.009793012032
375	4180	222.50011758	1072
375	4234	222.50013478	1608
375	4301	222.50015426	2144
1	4720	277.000114	1
1	4720	277.000114	0
1	4740	277.00012176	1
1	4740	277.00012176	0
1	4772	282.50010888	1
1	4772	282.50010888	0
1	4803	282.50011824	1
1	4803	282.50011824	0
1	4825	287.50010888	1
1	4825	287.50010888	0
3	4711	277.00011286	1
3	4711	277.00011286	0
3	4750	277.0001229	1
3	4750	277.0001229	0
3	4780	282.50010974	1
3	4780	282.50010974	0
3	4792	282.50011738	1
3	4806	282.5001191	0
5	4482	261.00003348	1
5	4482	261.00003348	0
5	4521	261.00004332	1
5	4521	261.00004332	0
5	4601	266.00003208	1
5	4601	266.00003208	0
5	4613	266.00003952	1
5	4627	266.00004144	0
5	4666	271.00003208	1
5	4666	271.00003208	0
5	4677	271.00003832	1
5	4690	271.00004024	0
7	4435	259.50003208	1
7	4435	259.50003208	0
7	4447	259.50003952	1
7	4461	259.50004144	0
7	4549	264.50003208	1
7	4549	264.50003208	0
7	4560	264.50003832	1
7	4573	264.50004024	0
7	4646	268.798616241664	1
7	4646	268.798616241664	0
9	4491	261.00003452	1
9	4491	261.00003452	0
9	4511	261.00004228	1
9	4511	261.00004228	0
9	4593	266.00003112	1
9	4593	266.00003112	0
9	4624	266.00004048	1
9	4624	266.00004048	0
9	4659	271.00003112	1
9	4659	271.00003112	0
9	4687	271.00003928	1
9	4687	271.00003928	0
11	4427	259.50003112	1
11	4427	259.50003112	0
11	4458	259.50004048	1
11	4458	259.50004048	0
11	4542	264.50003112	1
11	4542	264.50003112	0
11	4570	264.50003928	1
11	4570	264.50003928	0
13	4433	259.50003208	79
13	4445	259.50003952	60
13	4547	264.50003208	64
13	4558	264.50003832	72
13	4644	268.798616241664	48
14	4489	261.00003452	59
14	4509	261.00004228	40
14	4591	266.00003112	79
14	4622	266.00004048	60
14	4657	271.00003112	64
14	4685	271.00003928	72
15	4435	259.50003208	97
15	4447	259.50003952	78
15	4549	264.50003208	82
15	4560	264.50003832	90
15	4646	268.798616241664	66
16	4435	259.50003208	0
16	4461	259.50004144	1.92e-06
16	4549	264.50003208	0
16	4573	264.50004024	1.92e-06
16	4646	268.798616241664	0
17	4491	261.00003452	77
17	4511	261.00004228	64
17	4593	266.00003112	97
17	4624	266.00004048	78
17	4659	271.00003112	82
17	4687	271.00003928	90
18	4491	261.00003452	0
18	4511	261.00004228	0
18	4593	266.00003112	0
18	4624	266.00004048	0
18	4659	271.00003112	0
18	4687	271.00003928	0
19	4437	259.50003208	97
19	4463	259.50004144	78
19	4551	264.50003208	82
19	4575	264.50004024	90
19	4648	268.798616241664	66
20	4493	261.00003452	77
20	4513	261.00004228	64
20	4595	266.00003112	97
20	4626	266.00004048	78
20	4661	271.00003112	82
20	4689	271.00003928	90
21	4448	259.50004048	97
21	4469	259.50004832	78
21	4561	264.50003928	82
21	4581	264.50004808	90
21	4649	268.798622161664	66
22	4448	259.50004048	97
22	4469	259.50004832	78
22	4561	264.50003928	82
22	4581	264.50004808	90
22	4649	268.798622161664	66
23	4449	259.50004048	97
23	4470	259.50004832	78
23	4562	264.50003928	82
23	4582	264.50004808	90
23	4650	268.798622161664	66
24	4503	261.00004132	77
24	4524	261.00004804	64
24	4604	266.00003952	97
24	4630	266.00004736	78
24	4669	271.00003832	82
24	4693	271.00004712	90
25	4503	261.00004132	77
25	4524	261.00004804	64
25	4604	266.00003952	97
25	4630	266.00004736	78
25	4669	271.00003832	82
25	4693	271.00004712	90
26	4504	261.00004132	77
26	4525	261.00004804	64
26	4605	266.00003952	97
26	4631	266.00004736	78
26	4670	271.00003832	82
26	4694	271.00004712	90
27	4451	259.50004048	79
27	4472	259.50004832	60
27	4564	264.50003928	64
27	4584	264.50004808	72
27	4651	268.798622161664	48
28	4505	261.00004132	59
28	4526	261.00004804	46
28	4606	266.00003952	79
28	4632	266.00004736	60
28	4671	271.00003832	64
28	4695	271.00004712	72
30	4718	277.000114	59
30	4738	277.00012176	40
30	4770	282.50010888	79
30	4801	282.50011824	60
30	4823	287.50010888	64
31	4720	277.000114	77
31	4740	277.00012176	64
31	4772	282.50010888	97
31	4803	282.50011824	78
31	4825	287.50010888	82
32	4720	277.000114	0
32	4740	277.00012176	0
32	4772	282.50010888	0
32	4803	282.50011824	0
32	4825	287.50010888	0
33	4722	277.000114	77
33	4742	277.00012176	64
33	4774	282.50010888	97
33	4805	282.50011824	78
33	4827	287.50010888	82
34	4733	277.0001209	77
34	4754	277.00012762	64
34	4784	282.50011738	97
34	4810	282.50012522	78
35	4733	277.0001209	77
35	4754	277.00012762	64
35	4784	282.50011738	97
35	4810	282.50012522	78
36	4732	277.0001208	77
36	4753	277.00012752	64
36	4783	282.50011728	97
36	4809	282.50012512	78
37	4734	277.0001209	59
37	4755	277.00012762	46
37	4785	282.50011738	79
37	4811	282.50012522	60
39	4456	259.50004048	60
39	4540	264.50003112	64
39	4568	264.50003928	72
40	4427	259.50003112	97
40	4458	259.50004048	78
40	4542	264.50003112	82
40	4570	264.50003928	90
41	4427	259.50003112	0
41	4458	259.50004048	0
41	4542	264.50003112	0
41	4570	264.50003928	0
42	4429	259.50003112	97
42	4460	259.50004048	78
42	4544	264.50003112	82
42	4572	264.50003928	90
43	4438	259.50003952	97
43	4464	259.50004736	78
43	4552	264.50003832	82
43	4576	264.50004712	90
44	4438	259.50003952	97
44	4464	259.50004736	78
44	4552	264.50003832	82
44	4576	264.50004712	90
45	4439	259.50003952	97
45	4465	259.50004736	78
45	4553	264.50003832	82
45	4577	264.50004712	90
46	4440	259.50003952	79
46	4466	259.50004736	60
46	4554	264.50003832	64
46	4578	264.50004712	72
48	4709	277.00011286	59
48	4748	277.0001229	40
48	4778	282.50010974	79
48	4790	282.50011738	60
49	4480	261.00003348	59
49	4519	261.00004332	40
49	4599	266.00003208	79
49	4611	266.00003952	60
49	4664	271.00003208	64
49	4675	271.00003832	72
50	4711	277.00011286	77
50	4750	277.0001229	64
50	4780	282.50010974	97
50	4792	282.50011738	78
51	4711	277.00011286	0
51	4750	277.0001229	0
51	4780	282.50010974	0
51	4806	282.5001191	1.72e-06
52	4482	261.00003348	77
52	4521	261.00004332	64
52	4601	266.00003208	97
52	4613	266.00003952	78
52	4666	271.00003208	82
52	4677	271.00003832	90
53	4482	261.00003348	0
53	4521	261.00004332	0
53	4601	266.00003208	0
53	4627	266.00004144	1.92e-06
53	4666	271.00003208	0
53	4690	271.00004024	1.92e-06
54	4713	277.00011286	77
54	4752	277.0001229	64
54	4782	282.50010974	97
54	4808	282.5001191	78
55	4484	261.00003348	77
55	4523	261.00004332	64
55	4603	266.00003208	97
55	4629	266.00004144	78
55	4668	271.00003208	82
55	4692	271.00004024	90
56	4724	277.00011976	77
56	4761	277.00012876	64
56	4794	282.50011824	97
56	4815	282.50012608	78
57	4724	277.00011976	77
57	4761	277.00012876	64
57	4794	282.50011824	97
57	4815	282.50012608	78
58	4723	277.00011966	77
58	4760	277.00012866	64
58	4793	282.50011814	97
58	4814	282.50012598	78
59	4494	261.00004028	77
59	4531	261.00004908	64
59	4614	266.00004048	97
59	4635	266.00004832	78
59	4678	271.00003928	82
59	4698	271.00004808	90
60	4494	261.00004028	77
60	4531	261.00004908	64
60	4614	266.00004048	97
60	4635	266.00004832	78
60	4678	271.00003928	82
60	4698	271.00004808	90
61	4495	261.00004028	77
61	4532	261.00004908	64
61	4615	266.00004048	97
61	4636	266.00004832	78
61	4679	271.00003928	82
61	4699	271.00004808	90
62	4725	277.00011976	59
62	4762	277.00012876	46
62	4796	282.50011824	79
62	4817	282.50012608	60
63	4496	261.00004028	59
63	4533	261.00004908	46
63	4617	266.00004048	79
63	4638	266.00004832	60
63	4681	271.00003928	64
63	4701	271.00004808	72
190	4453	259.50004048	0
190	4453	259.50004048	0
191	4453	259.50004048	4882753
192	4453	259.50004048	7504
193	4453	259.50004048	4875249
194	4442	259.50003952	4875137
194	4468	259.50004736	4875156
195	4442	259.50003952	4875230
195	4468	259.50004736	4875249
196	4431	259.50003208	4882641
196	4442	259.50003952	4882660
197	4468	259.50004736	7504
198	4431	259.50003208	0
198	4442	259.50003952	0
198	4442	259.50003952	0
199	4431	259.50003208	7504
199	4442	259.50003952	7504
200	4431	259.50003208	4875137
200	4442	259.50003952	4875156
201	4453	259.50004048	4875230
201	4474	259.50004832	4875249
202	4453	259.50004048	4875137
202	4474	259.50004832	4875156
203	4474	259.50004832	7504
205	4474	259.50004832	0
206	4431	259.50003208	19
206	4468	259.50004736	0
208	4453	259.50004048	0
208	4474	259.50004832	0
209	4442	259.50003952	0
209	4468	259.50004736	0
210	4474	259.50004832	1.72e-05
211	4474	259.50004832	1.1016792e-05
212	4474	259.50004832	0.294528809017
213	4474	259.50004832	1.17812625286
214	4474	259.50004832	1072
215	4468	259.50004736	1.528e-05
216	4468	259.50004736	1.1658652e-05
217	4468	259.50004736	0.197312424703
218	4468	259.50004736	1
219	4468	259.50004736	1072
220	4486	261.00003352	0
220	4500	261.00004128	0
220	4500	261.00004128	0
221	4486	261.00003352	5257726
221	4500	261.00004128	5257745
222	4486	261.00003352	7504
222	4500	261.00004128	7504
223	4486	261.00003352	5250222
223	4500	261.00004128	5250241
224	4515	261.00004232	5250170
224	4530	261.00004904	5250189
225	4515	261.00004232	5250222
225	4530	261.00004904	5250241
226	4477	261.00003248	5257674
226	4515	261.00004232	5257693
227	4530	261.00004904	7504
228	4477	261.00003248	0
228	4515	261.00004232	0
228	4515	261.00004232	0
229	4477	261.00003248	7504
229	4515	261.00004232	7504
230	4477	261.00003248	5250170
230	4515	261.00004232	5250189
231	4500	261.00004128	5250222
231	4537	261.00005008	5250241
232	4500	261.00004128	5250170
232	4537	261.00005008	5250189
233	4537	261.00005008	7504
235	4486	261.00003352	19
235	4537	261.00005008	0
236	4477	261.00003248	19
236	4530	261.00004904	0
238	4515	261.00004232	0
238	4530	261.00004904	0
239	4500	261.00004128	0
239	4537	261.00005008	0
240	4537	261.00005008	1.656e-05
241	4537	261.00005008	1.1826457e-05
242	4537	261.00005008	0.294529371257
243	4537	261.00005008	1.178129311485
244	4537	261.00005008	1072
245	4530	261.00004904	1.656e-05
246	4530	261.00004904	1.3008718e-05
247	4530	261.00004904	0.225500365932
248	4530	261.00004904	1
249	4530	261.00004904	1072
256	4589	266.00003112	0
256	4619	266.00004048	0
256	4619	266.00004048	0
257	4589	266.00003112	6507711
257	4619	266.00004048	6507730
258	4589	266.00003112	7504
258	4619	266.00004048	7504
259	4589	266.00003112	6500207
259	4619	266.00004048	6500226
260	4608	266.00003952	6500160
260	4634	266.00004736	6500179
261	4608	266.00003952	6500207
261	4634	266.00004736	6500226
262	4597	266.00003208	6507664
262	4608	266.00003952	6507683
263	4634	266.00004736	7504
264	4597	266.00003208	0
264	4608	266.00003952	0
264	4608	266.00003952	0
265	4597	266.00003208	7504
265	4608	266.00003952	7504
266	4597	266.00003208	6500160
266	4608	266.00003952	6500179
267	4619	266.00004048	6500207
267	4640	266.00004832	6500226
268	4619	266.00004048	6500160
268	4640	266.00004832	6500179
269	4640	266.00004832	7504
271	4589	266.00003112	19
271	4640	266.00004832	0
272	4597	266.00003208	19
272	4634	266.00004736	0
274	4619	266.00004048	0
274	4640	266.00004832	0
275	4608	266.00003952	0
275	4634	266.00004736	0
276	4640	266.00004832	1.72e-05
277	4640	266.00004832	1.1016792e-05
278	4640	266.00004832	0.294528809017
279	4640	266.00004832	1.17812625286
280	4640	266.00004832	1072
281	4634	266.00004736	1.528e-05
282	4634	266.00004736	1.1215194e-05
283	4634	266.00004736	0.22549931503
284	4634	266.00004736	1
285	4634	266.00004736	1072
316	4715	277.000113	0
316	4729	277.00012076	0
316	4729	277.00012076	0
317	4715	277.000113	54257666
317	4729	277.00012076	54257685
318	4715	277.000113	7504
318	4729	277.00012076	7504
319	4715	277.000113	54250162
319	4729	277.00012076	54250181
320	4744	277.0001219	54250104
320	4759	277.00012862	54250123
321	4744	277.0001219	54250162
321	4759	277.00012862	54250181
322	4706	277.00011186	54257608
322	4744	277.0001219	54257627
323	4759	277.00012862	7504
324	4706	277.00011186	0
324	4744	277.0001219	0
324	4744	277.0001219	0
325	4706	277.00011186	7504
325	4744	277.0001219	7504
326	4706	277.00011186	54250104
326	4744	277.0001219	54250123
327	4729	277.00012076	54250162
327	4766	277.00012976	54250181
328	4729	277.00012076	54250104
328	4766	277.00012976	54250123
329	4766	277.00012976	7504
331	4715	277.000113	19
331	4766	277.00012976	0
332	4706	277.00011186	19
332	4759	277.00012862	0
334	4744	277.0001219	0
334	4759	277.00012862	0
335	4729	277.00012076	0
335	4766	277.00012976	0
336	4766	277.00012976	1.676e-05
337	4766	277.00012976	8.187666e-06
338	4766	277.00012976	0.439642722383
339	4766	277.00012976	1.758579077198
340	4766	277.00012976	1072
341	4759	277.00012862	1.676e-05
342	4759	277.00012862	7.624932e-06
343	4759	277.00012862	0.439642400821
344	4759	277.00012862	1.758577228216
345	4759	277.00012862	1072
346	4768	282.50010888	0
346	4798	282.50011824	0
346	4798	282.50011824	0
347	4768	282.50010888	55632651
347	4798	282.50011824	55632670
348	4768	282.50010888	7504
348	4798	282.50011824	7504
349	4768	282.50010888	55625147
349	4798	282.50011824	55625166
350	4787	282.50011738	55625099
350	4813	282.50012522	55625118
351	4787	282.50011738	55625147
351	4813	282.50012522	55625166
352	4776	282.50010974	55632603
352	4787	282.50011738	55632622
353	4813	282.50012522	7504
354	4776	282.50010974	0
354	4787	282.50011738	0
354	4787	282.50011738	0
355	4776	282.50010974	7504
355	4787	282.50011738	7504
356	4776	282.50010974	55625099
356	4787	282.50011738	55625118
357	4798	282.50011824	55625147
357	4819	282.50012608	55625166
358	4798	282.50011824	55625099
358	4819	282.50012608	55625118
359	4819	282.50012608	7504
361	4768	282.50010888	19
361	4819	282.50012608	0
362	4776	282.50010974	19
362	4813	282.50012522	0
364	4798	282.50011824	0
364	4819	282.50012608	0
365	4787	282.50011738	0
365	4813	282.50012522	0
366	4819	282.50012608	1.72e-05
367	4819	282.50012608	8.188252e-06
368	4819	282.50012608	0.439642728555
369	4819	282.50012608	1.758579102472
370	4819	282.50012608	1072
371	4813	282.50012522	1.548e-05
372	4813	282.50012522	7.272637e-06
373	4813	282.50012522	0.439642059453
374	4813	282.50012522	1.758575510449
375	4813	282.50012522	1072
1	4853	287.50011704	1
1	4853	287.50011704	0
3	4832	287.50010974	1
3	4832	287.50010974	0
3	4843	287.50011618	1
3	4856	287.5001179	0
30	4851	287.50011704	72
31	4853	287.50011704	90
32	4853	287.50011704	0
33	4855	287.50011704	90
34	4836	287.50011618	82
34	4860	287.50012498	90
35	4836	287.50011618	82
35	4860	287.50012498	90
36	4835	287.50011608	82
36	4859	287.50012488	90
37	4837	287.50011618	64
37	4861	287.50012498	72
48	4830	287.50010974	64
48	4841	287.50011618	72
50	4832	287.50010974	82
50	4843	287.50011618	90
51	4832	287.50010974	0
51	4856	287.5001179	1.72e-06
54	4834	287.50010974	82
54	4858	287.5001179	90
56	4845	287.50011704	82
56	4865	287.50012584	90
57	4845	287.50011704	82
57	4865	287.50012584	90
58	4844	287.50011694	82
58	4864	287.50012574	90
62	4847	287.50011704	64
62	4867	287.50012584	72

